xflr5 v6.62

 Calculated polar for: AG12

 1 1 Reynolds number fixed          Mach number fixed         

 xtrf =   1.000 (top)        1.000 (bottom)
 Mach =   0.000     Re =     0.012 e 6     Ncrit =   5.000

  alpha     CL        CD       CDp       Cm    Top Xtr Bot Xtr   Cpmin    Chinge    XCp    
 ------- -------- --------- --------- -------- ------- ------- -------- --------- ---------
  -5.000  -0.4076   0.06147   0.04685  -0.0291  1.0000  0.1898  -2.3521   0.0000   0.0000   0.0000   0.1772
  -4.500  -0.3593   0.05380   0.03847  -0.0334  1.0000  0.2200  -2.3352   0.0000   0.0000   0.0000   0.1556
  -4.000  -0.3071   0.04707   0.03114  -0.0351  1.0000  0.2666  -2.2676   0.0000   0.0000   0.0000   0.1339
  -3.500  -0.2557   0.04122   0.02487  -0.0347  1.0000  0.3562  -2.1559   0.0000   0.0000   0.0000   0.1124
  -3.000  -0.2190   0.03606   0.02039  -0.0283  1.0000  0.5246  -2.0014   0.0000   0.0000   0.0000   0.1188
  -2.500  -0.1388   0.02922   0.01391  -0.0282  1.0000  1.0000  -1.6683   0.0000   0.0000   0.0000   0.0445
  -2.000  -0.0800   0.02867   0.01098  -0.0322  1.0000  1.0000  -1.3096   0.0000   0.0000   0.0000  -0.1564
  -1.500  -0.0267   0.02849   0.00934  -0.0331  1.0000  1.0000  -0.9928   0.0000   0.0000   0.0000  -0.9965
  -1.000   0.0245   0.02844   0.00821  -0.0332  1.0000  1.0000  -0.6937   0.0000   0.0000   0.0000   1.6103
  -0.500   0.0740   0.02853   0.00757  -0.0329  1.0000  1.0000  -0.4724   0.0000   0.0000   0.0000   0.6954
   0.000   0.1221   0.02873   0.00726  -0.0325  1.0000  1.0000  -0.3659   0.0000   0.0000   0.0000   0.5160
   0.500   0.1687   0.02906   0.00734  -0.0321  1.0000  1.0000  -0.4180   0.0000   0.0000   0.0000   0.4391
   1.000   0.2138   0.02956   0.00776  -0.0316  1.0000  1.0000  -0.4756   0.0000   0.0000   0.0000   0.3966
   1.500   0.2570   0.03027   0.00854  -0.0313  1.0000  1.0000  -0.5379   0.0000   0.0000   0.0000   0.3702
   2.000   0.2978   0.03128   0.00972  -0.0312  1.0000  1.0000  -0.6047   0.0000   0.0000   0.0000   0.3529
   3.000   0.3710   0.03464   0.01374  -0.0326  1.0000  1.0000  -0.7493   0.0000   0.0000   0.0000   0.3355
   3.500   0.4017   0.03726   0.01671  -0.0345  1.0000  1.0000  -0.8190   0.0000   0.0000   0.0000   0.3333
   4.000   0.4907   0.04178   0.02220  -0.0485  0.9399  1.0000  -0.9795   0.0000   0.0000   0.0000   0.3459
   4.500   0.6275   0.04647   0.02844  -0.0646  0.8013  1.0000  -1.2897   0.0000   0.0000   0.0000   0.3498
   5.000   0.7098   0.05002   0.03326  -0.0657  0.6830  1.0000  -1.6006   0.0000   0.0000   0.0000   0.3392
   5.500   0.7681   0.05347   0.03748  -0.0609  0.5803  1.0000  -1.9442   0.0000   0.0000   0.0000   0.3257
   6.000   0.8068   0.05799   0.04268  -0.0557  0.4934  1.0000  -2.2527   0.0000   0.0000   0.0000   0.3152
   6.500   0.8393   0.06341   0.04859  -0.0511  0.4192  1.0000  -2.5137   0.0000   0.0000   0.0000   0.3069
   7.000   0.8685   0.06968   0.05527  -0.0474  0.3584  1.0000  -2.7647   0.0000   0.0000   0.0000   0.3003
   7.500   0.8841   0.07802   0.06402  -0.0471  0.3154  1.0000  -2.8974   0.0000   0.0000   0.0000   0.2987
   8.000   0.8903   0.08772   0.07401  -0.0489  0.2874  1.0000  -2.9372   0.0000   0.0000   0.0000   0.3000
   8.500   0.8950   0.09725   0.08384  -0.0504  0.2614  1.0000  -2.9709   0.0000   0.0000   0.0000   0.3011
   9.000   0.8929   0.10808   0.09471  -0.0543  0.2484  1.0000  -2.9225   0.0000   0.0000   0.0000   0.3052
   9.500   0.8783   0.11934   0.10582  -0.0605  0.2437  1.0000  -2.7825   0.0000   0.0000   0.0000   0.3130
  10.000   0.8758   0.12906   0.11547  -0.0635  0.2307  1.0000  -2.7411   0.0000   0.0000   0.0000   0.3164


