xflr5 v6.62

 Calculated polar for: AG12

 1 1 Reynolds number fixed          Mach number fixed         

 xtrf =   1.000 (top)        1.000 (bottom)
 Mach =   0.000     Re =     0.020 e 6     Ncrit =   5.000

  alpha     CL        CD       CDp       Cm    Top Xtr Bot Xtr   Cpmin    Chinge    XCp    
 ------- -------- --------- --------- -------- ------- ------- -------- --------- ---------
  -5.000  -0.3877   0.05057   0.03849  -0.0379  1.0000  0.1083  -2.5980   0.0000   0.0000   0.0000   0.1506
  -4.500  -0.3330   0.04293   0.02967  -0.0417  1.0000  0.1226  -2.5313   0.0000   0.0000   0.0000   0.1228
  -4.000  -0.2762   0.03697   0.02276  -0.0431  1.0000  0.1489  -2.4534   0.0000   0.0000   0.0000   0.0921
  -3.500  -0.2214   0.03234   0.01770  -0.0430  1.0000  0.2109  -2.2938   0.0000   0.0000   0.0000   0.0538
  -3.000  -0.1719   0.02828   0.01420  -0.0412  1.0000  0.3599  -2.0741   0.0000   0.0000   0.0000   0.0082
  -2.500  -0.1423   0.02451   0.01197  -0.0329  1.0000  0.6316  -1.8169   0.0000   0.0000   0.0000   0.0165
  -2.000  -0.0738   0.02207   0.00883  -0.0335  1.0000  1.0000  -1.3846   0.0000   0.0000   0.0000  -0.2076
  -1.500  -0.0188   0.02193   0.00742  -0.0344  1.0000  1.0000  -1.0179   0.0000   0.0000   0.0000  -1.5893
  -1.000   0.0331   0.02193   0.00651  -0.0345  1.0000  1.0000  -0.7064   0.0000   0.0000   0.0000   1.2940
  -0.500   0.0833   0.02203   0.00603  -0.0342  1.0000  1.0000  -0.4645   0.0000   0.0000   0.0000   0.6604
   0.000   0.1320   0.02224   0.00584  -0.0337  1.0000  1.0000  -0.3726   0.0000   0.0000   0.0000   0.5049
   0.500   0.1794   0.02258   0.00598  -0.0333  1.0000  1.0000  -0.4272   0.0000   0.0000   0.0000   0.4346
   1.000   0.2252   0.02310   0.00645  -0.0329  1.0000  1.0000  -0.4869   0.0000   0.0000   0.0000   0.3950
   1.500   0.2688   0.02386   0.00727  -0.0328  1.0000  1.0000  -0.5511   0.0000   0.0000   0.0000   0.3705
   2.000   0.3103   0.02499   0.00855  -0.0332  1.0000  1.0000  -0.6200   0.0000   0.0000   0.0000   0.3551
   2.500   0.3479   0.02664   0.01048  -0.0343  1.0000  1.0000  -0.6911   0.0000   0.0000   0.0000   0.3465
   3.000   0.4819   0.02881   0.01341  -0.0515  0.9008  1.0000  -0.9015   0.0000   0.0000   0.0000   0.3546
   3.500   0.5844   0.03006   0.01553  -0.0579  0.7976  1.0000  -1.1331   0.0000   0.0000   0.0000   0.3466
   4.000   0.6502   0.03124   0.01716  -0.0556  0.6983  1.0000  -1.3628   0.0000   0.0000   0.0000   0.3327
   4.500   0.6991   0.03272   0.01897  -0.0502  0.6036  1.0000  -1.6285   0.0000   0.0000   0.0000   0.3188
   5.000   0.7424   0.03458   0.02093  -0.0444  0.5121  1.0000  -1.9658   0.0000   0.0000   0.0000   0.3065
   5.500   0.7834   0.03706   0.02365  -0.0395  0.4229  1.0000  -2.3507   0.0000   0.0000   0.0000   0.2968
   6.000   0.8234   0.04016   0.02687  -0.0354  0.3409  1.0000  -2.7512   0.0000   0.0000   0.0000   0.2889
   6.500   0.8619   0.04414   0.03113  -0.0322  0.2703  1.0000  -3.1579   0.0000   0.0000   0.0000   0.2829
   7.000   0.8981   0.04923   0.03675  -0.0300  0.2142  1.0000  -3.5107   0.0000   0.0000   0.0000   0.2785
   7.500   0.9305   0.05586   0.04403  -0.0291  0.1734  1.0000  -3.7761   0.0000   0.0000   0.0000   0.2759
   8.000   0.9538   0.06472   0.05365  -0.0293  0.1509  1.0000  -3.9003   0.0000   0.0000   0.0000   0.2751
   8.500   0.9574   0.07480   0.06441  -0.0313  0.1340  1.0000  -3.8899   0.0000   0.0000   0.0000   0.2768
   9.000   0.9588   0.08536   0.07528  -0.0334  0.1267  1.0000  -3.8551   0.0000   0.0000   0.0000   0.2786
   9.500   0.9355   0.09846   0.08855  -0.0399  0.1264  1.0000  -3.6095   0.0000   0.0000   0.0000   0.2862
  10.000   0.9151   0.11201   0.10201  -0.0483  0.1265  1.0000  -3.3648   0.0000   0.0000   0.0000   0.2961


