xflr5 v6.62

 Calculated polar for: AG12

 1 1 Reynolds number fixed          Mach number fixed         

 xtrf =   1.000 (top)        1.000 (bottom)
 Mach =   0.000     Re =     0.010 e 6     Ncrit =   5.000

  alpha     CL        CD       CDp       Cm    Top Xtr Bot Xtr   Cpmin    Chinge    XCp    
 ------- -------- --------- --------- -------- ------- ------- -------- --------- ---------
  -5.000  -0.4203   0.06637   0.05086  -0.0218  1.0000  0.2399  -2.2737   0.0000   0.0000   0.0000   0.1968
  -4.500  -0.3739   0.05822   0.04209  -0.0267  1.0000  0.2667  -2.2755   0.0000   0.0000   0.0000   0.1771
  -4.000  -0.3243   0.05117   0.03449  -0.0289  1.0000  0.3216  -2.2206   0.0000   0.0000   0.0000   0.1594
  -3.500  -0.2792   0.04506   0.02818  -0.0269  1.0000  0.4208  -2.1183   0.0000   0.0000   0.0000   0.1520
  -3.000  -0.2469   0.03929   0.02306  -0.0188  1.0000  0.5933  -1.9919   0.0000   0.0000   0.0000   0.1722
  -2.500  -0.1388   0.03202   0.01474  -0.0286  1.0000  1.0000  -1.6306   0.0000   0.0000   0.0000   0.0413
  -2.000  -0.0823   0.03150   0.01187  -0.0318  1.0000  1.0000  -1.2851   0.0000   0.0000   0.0000  -0.1396
  -1.500  -0.0295   0.03129   0.01014  -0.0326  1.0000  1.0000  -0.9804   0.0000   0.0000   0.0000  -0.8587
  -1.000   0.0213   0.03123   0.00892  -0.0327  1.0000  1.0000  -0.6908   0.0000   0.0000   0.0000   1.7923
  -0.500   0.0706   0.03130   0.00822  -0.0325  1.0000  1.0000  -0.4743   0.0000   0.0000   0.0000   0.7108
   0.000   0.1184   0.03150   0.00786  -0.0321  1.0000  1.0000  -0.3634   0.0000   0.0000   0.0000   0.5206
   0.500   0.1648   0.03184   0.00791  -0.0316  1.0000  1.0000  -0.4147   0.0000   0.0000   0.0000   0.4410
   1.000   0.2096   0.03233   0.00831  -0.0312  1.0000  1.0000  -0.4714   0.0000   0.0000   0.0000   0.3975
   1.500   0.2527   0.03303   0.00908  -0.0308  1.0000  1.0000  -0.5329   0.0000   0.0000   0.0000   0.3704
   2.000   0.2934   0.03400   0.01025  -0.0306  1.0000  1.0000  -0.5989   0.0000   0.0000   0.0000   0.3525
   2.500   0.3317   0.03535   0.01189  -0.0308  1.0000  1.0000  -0.6692   0.0000   0.0000   0.0000   0.3407
   3.000   0.3670   0.03720   0.01415  -0.0315  1.0000  1.0000  -0.7427   0.0000   0.0000   0.0000   0.3336
   3.500   0.3982   0.03966   0.01700  -0.0330  1.0000  1.0000  -0.8140   0.0000   0.0000   0.0000   0.3303
   4.000   0.4257   0.04283   0.02058  -0.0354  1.0000  1.0000  -0.8864   0.0000   0.0000   0.0000   0.3302
   4.500   0.5018   0.04821   0.02698  -0.0485  0.9474  1.0000  -1.0332   0.0000   0.0000   0.0000   0.3434
   5.000   0.6377   0.05493   0.03554  -0.0665  0.8013  1.0000  -1.3477   0.0000   0.0000   0.0000   0.3508
   5.500   0.7232   0.06029   0.04224  -0.0698  0.6798  1.0000  -1.6650   0.0000   0.0000   0.0000   0.3429
   6.000   0.7790   0.06552   0.04837  -0.0668  0.5808  1.0000  -1.9862   0.0000   0.0000   0.0000   0.3319
   6.500   0.8104   0.07176   0.05534  -0.0634  0.5042  1.0000  -2.2175   0.0000   0.0000   0.0000   0.3242
   7.000   0.8387   0.07865   0.06271  -0.0602  0.4402  1.0000  -2.4182   0.0000   0.0000   0.0000   0.3175
   7.500   0.8517   0.08698   0.07136  -0.0597  0.3947  1.0000  -2.5113   0.0000   0.0000   0.0000   0.3155
   8.000   0.8647   0.09573   0.08037  -0.0594  0.3572  1.0000  -2.6161   0.0000   0.0000   0.0000   0.3139
   8.500   0.8683   0.10509   0.08984  -0.0608  0.3292  1.0000  -2.6478   0.0000   0.0000   0.0000   0.3149
   9.000   0.8651   0.11505   0.09979  -0.0639  0.3141  1.0000  -2.6155   0.0000   0.0000   0.0000   0.3185
   9.500   0.8632   0.12448   0.10920  -0.0664  0.2968  1.0000  -2.5955   0.0000   0.0000   0.0000   0.3211
  10.000   0.8644   0.13385   0.11857  -0.0687  0.2814  1.0000  -2.5829   0.0000   0.0000   0.0000   0.3233


