xflr5 v6.62

 Calculated polar for: AG12

 1 1 Reynolds number fixed          Mach number fixed         

 xtrf =   1.000 (top)        1.000 (bottom)
 Mach =   0.000     Re =     0.015 e 6     Ncrit =   5.000

  alpha     CL        CD       CDp       Cm    Top Xtr Bot Xtr   Cpmin    Chinge    XCp    
 ------- -------- --------- --------- -------- ------- ------- -------- --------- ---------
  -5.000  -0.3982   0.05667   0.04329  -0.0337  1.0000  0.1517  -2.4222   0.0000   0.0000   0.0000   0.1637
  -4.500  -0.3449   0.04857   0.03420  -0.0383  1.0000  0.1664  -2.4215   0.0000   0.0000   0.0000   0.1374
  -4.000  -0.2901   0.04231   0.02712  -0.0403  1.0000  0.2081  -2.3434   0.0000   0.0000   0.0000   0.1095
  -3.500  -0.2359   0.03699   0.02135  -0.0402  1.0000  0.2856  -2.2119   0.0000   0.0000   0.0000   0.0778
  -3.000  -0.1933   0.03240   0.01746  -0.0359  1.0000  0.4482  -2.0241   0.0000   0.0000   0.0000   0.0620
  -2.500  -0.1714   0.02758   0.01429  -0.0233  1.0000  0.7484  -1.8210   0.0000   0.0000   0.0000   0.1117
  -2.000  -0.0773   0.02557   0.00999  -0.0328  1.0000  1.0000  -1.3447   0.0000   0.0000   0.0000  -0.1780
  -1.500  -0.0232   0.02541   0.00845  -0.0337  1.0000  1.0000  -1.0053   0.0000   0.0000   0.0000  -1.2086
  -1.000   0.0283   0.02538   0.00741  -0.0337  1.0000  1.0000  -0.7005   0.0000   0.0000   0.0000   1.4463
  -0.500   0.0781   0.02547   0.00685  -0.0335  1.0000  1.0000  -0.4693   0.0000   0.0000   0.0000   0.6788
   0.000   0.1265   0.02568   0.00660  -0.0331  1.0000  1.0000  -0.3689   0.0000   0.0000   0.0000   0.5108
   0.500   0.1734   0.02602   0.00670  -0.0326  1.0000  1.0000  -0.4221   0.0000   0.0000   0.0000   0.4369
   1.000   0.2188   0.02652   0.00715  -0.0322  1.0000  1.0000  -0.4806   0.0000   0.0000   0.0000   0.3958
   1.500   0.2622   0.02725   0.00794  -0.0319  1.0000  1.0000  -0.5438   0.0000   0.0000   0.0000   0.3702
   2.000   0.3032   0.02830   0.00916  -0.0320  1.0000  1.0000  -0.6116   0.0000   0.0000   0.0000   0.3536
   2.500   0.3415   0.02980   0.01097  -0.0326  1.0000  1.0000  -0.6832   0.0000   0.0000   0.0000   0.3435
   3.000   0.3756   0.03191   0.01336  -0.0341  1.0000  1.0000  -0.7560   0.0000   0.0000   0.0000   0.3385
   3.500   0.4821   0.03540   0.01766  -0.0493  0.9246  1.0000  -0.9345   0.0000   0.0000   0.0000   0.3497
   4.000   0.6106   0.03812   0.02174  -0.0617  0.8019  1.0000  -1.2196   0.0000   0.0000   0.0000   0.3483
   4.500   0.6886   0.04013   0.02470  -0.0609  0.6914  1.0000  -1.5052   0.0000   0.0000   0.0000   0.3354
   5.000   0.7399   0.04248   0.02756  -0.0555  0.5912  1.0000  -1.8110   0.0000   0.0000   0.0000   0.3217
   5.500   0.7832   0.04525   0.03079  -0.0490  0.4986  1.0000  -2.1741   0.0000   0.0000   0.0000   0.3090
   6.000   0.8220   0.04876   0.03458  -0.0432  0.4144  1.0000  -2.5207   0.0000   0.0000   0.0000   0.2987
   6.500   0.8562   0.05363   0.03985  -0.0394  0.3421  1.0000  -2.8445   0.0000   0.0000   0.0000   0.2917
   7.000   0.8858   0.05972   0.04643  -0.0369  0.2840  1.0000  -3.1216   0.0000   0.0000   0.0000   0.2870
   7.500   0.9080   0.06739   0.05478  -0.0362  0.2423  1.0000  -3.3042   0.0000   0.0000   0.0000   0.2849
   8.000   0.9206   0.07732   0.06523  -0.0381  0.2177  1.0000  -3.3610   0.0000   0.0000   0.0000   0.2861
   8.500   0.9284   0.08646   0.07463  -0.0391  0.1936  1.0000  -3.4206   0.0000   0.0000   0.0000   0.2866
   9.000   0.9097   0.09934   0.08764  -0.0462  0.1884  1.0000  -3.2197   0.0000   0.0000   0.0000   0.2950
   9.500   0.8970   0.11142   0.09964  -0.0524  0.1853  1.0000  -3.0664   0.0000   0.0000   0.0000   0.3024
  10.000   0.8944   0.12244   0.11058  -0.0567  0.1799  1.0000  -2.9899   0.0000   0.0000   0.0000   0.3070


