xflr5 v6.62

 Calculated polar for: AG12

 1 1 Reynolds number fixed          Mach number fixed         

 xtrf =   1.000 (top)        1.000 (bottom)
 Mach =   0.000     Re =     0.008 e 6     Ncrit =   5.000

  alpha     CL        CD       CDp       Cm    Top Xtr Bot Xtr   Cpmin    Chinge    XCp    
 ------- -------- --------- --------- -------- ------- ------- -------- --------- ---------
  -5.000  -0.4346   0.07178   0.05484  -0.0123  1.0000  0.3084  -2.2198   0.0000   0.0000   0.0000   0.2203
  -4.500  -0.3940   0.06379   0.04636  -0.0169  1.0000  0.3436  -2.2210   0.0000   0.0000   0.0000   0.2058
  -4.000  -0.3529   0.05669   0.03908  -0.0166  1.0000  0.4090  -2.1656   0.0000   0.0000   0.0000   0.2015
  -3.500  -0.3142   0.05000   0.03232  -0.0130  1.0000  0.5161  -2.0849   0.0000   0.0000   0.0000   0.2071
  -3.000  -0.2784   0.04289   0.02588  -0.0033  1.0000  0.7224  -1.9672   0.0000   0.0000   0.0000   0.2365
  -2.500  -0.1394   0.03588   0.01591  -0.0287  1.0000  1.0000  -1.5785   0.0000   0.0000   0.0000   0.0414
  -2.000  -0.0850   0.03535   0.01304  -0.0312  1.0000  1.0000  -1.2586   0.0000   0.0000   0.0000  -0.1201
  -1.500  -0.0331   0.03511   0.01120  -0.0319  1.0000  1.0000  -0.9625   0.0000   0.0000   0.0000  -0.7216
  -1.000   0.0173   0.03503   0.00986  -0.0321  1.0000  1.0000  -0.6862   0.0000   0.0000   0.0000   2.1130
  -0.500   0.0662   0.03509   0.00909  -0.0319  1.0000  1.0000  -0.4762   0.0000   0.0000   0.0000   0.7324
   0.000   0.1138   0.03528   0.00867  -0.0316  1.0000  1.0000  -0.3602   0.0000   0.0000   0.0000   0.5269
   0.500   0.1599   0.03561   0.00867  -0.0311  1.0000  1.0000  -0.4108   0.0000   0.0000   0.0000   0.4437
   1.000   0.2044   0.03611   0.00905  -0.0306  1.0000  1.0000  -0.4660   0.0000   0.0000   0.0000   0.3986
   1.500   0.2472   0.03680   0.00981  -0.0302  1.0000  1.0000  -0.5263   0.0000   0.0000   0.0000   0.3707
   2.000   0.2879   0.03774   0.01096  -0.0299  1.0000  1.0000  -0.5913   0.0000   0.0000   0.0000   0.3522
   2.500   0.3261   0.03903   0.01258  -0.0299  1.0000  1.0000  -0.6604   0.0000   0.0000   0.0000   0.3397
   3.000   0.3617   0.04077   0.01477  -0.0304  1.0000  1.0000  -0.7333   0.0000   0.0000   0.0000   0.3317
   3.500   0.3937   0.04306   0.01750  -0.0315  1.0000  1.0000  -0.8069   0.0000   0.0000   0.0000   0.3273
   4.000   0.4220   0.04600   0.02090  -0.0333  1.0000  1.0000  -0.8810   0.0000   0.0000   0.0000   0.3260
   4.500   0.4467   0.04965   0.02516  -0.0359  1.0000  1.0000  -0.9465   0.0000   0.0000   0.0000   0.3272
   5.000   0.4684   0.05400   0.02999  -0.0393  1.0000  1.0000  -1.0138   0.0000   0.0000   0.0000   0.3302
   5.500   0.5998   0.06363   0.04150  -0.0631  0.8684  1.0000  -1.2842   0.0000   0.0000   0.0000   0.3514
   6.000   0.6900   0.07179   0.05110  -0.0726  0.7435  1.0000  -1.5645   0.0000   0.0000   0.0000   0.3513
   6.500   0.7470   0.07937   0.05972  -0.0745  0.6462  1.0000  -1.8115   0.0000   0.0000   0.0000   0.3456
   7.000   0.7853   0.08712   0.06836  -0.0739  0.5696  1.0000  -2.0279   0.0000   0.0000   0.0000   0.3397
   7.500   0.8115   0.09525   0.07699  -0.0727  0.5103  1.0000  -2.1844   0.0000   0.0000   0.0000   0.3350
   8.000   0.8231   0.10366   0.08568  -0.0722  0.4672  1.0000  -2.2612   0.0000   0.0000   0.0000   0.3328
   8.500   0.8290   0.11233   0.09451  -0.0725  0.4343  1.0000  -2.2978   0.0000   0.0000   0.0000   0.3322
   9.000   0.8367   0.12128   0.10361  -0.0731  0.4054  1.0000  -2.3392   0.0000   0.0000   0.0000   0.3319
   9.500   0.8426   0.13038   0.11279  -0.0744  0.3825  1.0000  -2.3708   0.0000   0.0000   0.0000   0.3325
  10.000   0.8468   0.13939   0.12187  -0.0761  0.3643  1.0000  -2.3822   0.0000   0.0000   0.0000   0.3337


