xflr5 v6.62

 Calculated polar for: camber4_thick2

 1 1 Reynolds number fixed          Mach number fixed         

 xtrf =   1.000 (top)        1.000 (bottom)
 Mach =   0.000     Re =     0.008 e 6     Ncrit =   5.000

  alpha     CL        CD       CDp       Cm    Top Xtr Bot Xtr   Cpmin    Chinge    XCp    
 ------- -------- --------- --------- -------- ------- ------- -------- --------- ---------
  -5.000  -0.3755   0.08619   0.07109  -0.0047  1.0000  0.3482  -1.1877   0.0000   0.0000   0.0000   0.2381
  -4.500  -0.3270   0.08059   0.06515  -0.0163  1.0000  0.3144  -1.2163   0.0000   0.0000   0.0000   0.2006
  -4.000  -0.2710   0.07416   0.05833  -0.0258  1.0000  0.2874  -1.2264   0.0000   0.0000   0.0000   0.1549
  -3.500  -0.2050   0.06810   0.05160  -0.0360  1.0000  0.2640  -1.2323   0.0000   0.0000   0.0000   0.0745
  -3.000  -0.1318   0.06232   0.04473  -0.0454  1.0000  0.2432  -1.2336   0.0000   0.0000   0.0000  -0.0950
  -2.500  -0.0606   0.05690   0.03838  -0.0520  1.0000  0.2273  -1.2208   0.0000   0.0000   0.0000  -0.6113
  -2.000   0.0144   0.05286   0.03302  -0.0580  1.0000  0.2185  -1.1909   0.0000   0.0000   0.0000   4.2856
  -1.500   0.0826   0.04874   0.02735  -0.0613  1.0000  0.2218  -1.2726   0.0000   0.0000   0.0000   0.9947
  -1.000   0.1473   0.04492   0.02259  -0.0628  1.0000  0.2341  -1.2125   0.0000   0.0000   0.0000   0.6778
  -0.500   0.2067   0.04162   0.01870  -0.0629  1.0000  0.2560  -1.1123   0.0000   0.0000   0.0000   0.5547
   0.000   0.2600   0.03833   0.01566  -0.0620  1.0000  0.3086  -1.0713   0.0000   0.0000   0.0000   0.4887
   0.500   0.3001   0.03521   0.01400  -0.0589  1.0000  1.0000  -1.0999   0.0000   0.0000   0.0000   0.4459
   1.000   0.3537   0.03588   0.01277  -0.0566  1.0000  1.0000  -1.1066   0.0000   0.0000   0.0000   0.4095
   1.500   0.4012   0.03663   0.01171  -0.0547  1.0000  1.0000  -0.9566   0.0000   0.0000   0.0000   0.3853
   2.000   0.4447   0.03753   0.01127  -0.0539  1.0000  1.0000  -0.6628   0.0000   0.0000   0.0000   0.3698
   2.500   0.4851   0.03877   0.01186  -0.0538  1.0000  1.0000  -0.7019   0.0000   0.0000   0.0000   0.3593
   3.000   0.5218   0.04054   0.01368  -0.0545  1.0000  1.0000  -0.7372   0.0000   0.0000   0.0000   0.3525
   3.500   0.5526   0.04314   0.01640  -0.0560  1.0000  1.0000  -0.7607   0.0000   0.0000   0.0000   0.3491
   4.000   0.5764   0.04684   0.02030  -0.0587  1.0000  1.0000  -0.7687   0.0000   0.0000   0.0000   0.3491
   4.500   0.5963   0.05139   0.02506  -0.0621  1.0000  1.0000  -0.7703   0.0000   0.0000   0.0000   0.3510
   5.000   0.6886   0.05847   0.03312  -0.0787  0.9174  1.0000  -1.3234   0.0000   0.0000   0.0000   0.3608
   5.500   0.7637   0.06496   0.04095  -0.0887  0.8512  1.0000  -2.0642   0.0000   0.0000   0.0000   0.3622
   6.000   0.8021   0.07091   0.04807  -0.0921  0.8126  1.0000  -2.5310   0.0000   0.0000   0.0000   0.3605
   7.000   0.9777   0.07972   0.06455  -0.0778  0.4848  1.0000  -3.3774   0.0000   0.0000   0.0000   0.3246
   7.500   1.0018   0.08243   0.06638  -0.0563  0.2587  1.0000  -3.3652   0.0000   0.0000   0.0000   0.3008
   8.000   1.0060   0.09260   0.07666  -0.0577  0.2264  1.0000  -3.2661   0.0000   0.0000   0.0000   0.3016
   8.500   1.0034   0.10348   0.08752  -0.0611  0.2117  1.0000  -3.1516   0.0000   0.0000   0.0000   0.3048
   9.000   1.0061   0.11369   0.09759  -0.0630  0.1968  1.0000  -3.0684   0.0000   0.0000   0.0000   0.3062
   9.500   0.9970   0.12508   0.10880  -0.0687  0.1943  1.0000  -2.9332   0.0000   0.0000   0.0000   0.3121
  10.000   0.9914   0.13595   0.11948  -0.0737  0.1908  1.0000  -2.8116   0.0000   0.0000   0.0000   0.3172


