xflr5 v6.62

 Calculated polar for: camber4_thick2

 1 1 Reynolds number fixed          Mach number fixed         

 xtrf =   1.000 (top)        1.000 (bottom)
 Mach =   0.000     Re =     0.020 e 6     Ncrit =   5.000

  alpha     CL        CD       CDp       Cm    Top Xtr Bot Xtr   Cpmin    Chinge    XCp    
 ------- -------- --------- --------- -------- ------- ------- -------- --------- ---------
  -2.500  -0.0670   0.04641   0.03574  -0.0501  1.0000  0.2620  -0.8773   0.0000   0.0000   0.0000  -0.4998
  -2.000   0.0180   0.04266   0.03110  -0.0574  1.0000  0.1847  -0.8703   0.0000   0.0000   0.0000   3.4480
  -1.500   0.0935   0.03952   0.02662  -0.0604  1.0000  0.1326  -1.0078   0.0000   0.0000   0.0000   0.8976
  -1.000   0.1614   0.03638   0.02244  -0.0615  1.0000  0.1053  -1.0543   0.0000   0.0000   0.0000   0.6319
  -0.500   0.2233   0.03328   0.01838  -0.0614  1.0000  0.0959  -1.0350   0.0000   0.0000   0.0000   0.5254
   0.000   0.2808   0.03067   0.01495  -0.0606  1.0000  0.1074  -0.8762   0.0000   0.0000   0.0000   0.4659
   0.500   0.3338   0.02853   0.01222  -0.0591  1.0000  0.1170  -0.8831   0.0000   0.0000   0.0000   0.4266
   1.000   0.3865   0.02633   0.00987  -0.0588  1.0000  0.1606  -0.8767   0.0000   0.0000   0.0000   0.4013
   1.500   0.4289   0.02369   0.00875  -0.0573  1.0000  1.0000  -0.8424   0.0000   0.0000   0.0000   0.3824
   2.000   0.4747   0.02464   0.00854  -0.0566  1.0000  1.0000  -0.7013   0.0000   0.0000   0.0000   0.3677
   2.500   0.5482   0.02616   0.00969  -0.0636  0.9579  1.0000  -0.7657   0.0000   0.0000   0.0000   0.3642
   3.000   0.6657   0.02708   0.01079  -0.0746  0.8119  1.0000  -0.8653   0.0000   0.0000   0.0000   0.3599
   3.500   0.7409   0.02834   0.01217  -0.0754  0.6938  1.0000  -1.2952   0.0000   0.0000   0.0000   0.3494
   4.000   0.7965   0.03033   0.01443  -0.0734  0.6188  1.0000  -2.0641   0.0000   0.0000   0.0000   0.3394
   4.500   0.8492   0.03282   0.01791  -0.0720  0.5727  1.0000  -2.8522   0.0000   0.0000   0.0000   0.3317


