xflr5 v6.62

 Calculated polar for: camber4_thick2

 1 1 Reynolds number fixed          Mach number fixed         

 xtrf =   1.000 (top)        1.000 (bottom)
 Mach =   0.000     Re =     0.012 e 6     Ncrit =   5.000

  alpha     CL        CD       CDp       Cm    Top Xtr Bot Xtr   Cpmin    Chinge    XCp    
 ------- -------- --------- --------- -------- ------- ------- -------- --------- ---------
  -5.000  -0.4059   0.07932   0.06754   0.0208  1.0000  0.5387  -0.9839   0.0000   0.0000   0.0000   0.3018
  -4.500  -0.3616   0.07427   0.06242   0.0034  1.0000  0.4419  -1.0213   0.0000   0.0000   0.0000   0.2599
  -4.000  -0.2942   0.06861   0.05640  -0.0160  1.0000  0.3522  -1.0547   0.0000   0.0000   0.0000   0.1960
  -3.500  -0.2122   0.06283   0.04995  -0.0328  1.0000  0.2777  -1.0770   0.0000   0.0000   0.0000   0.0952
  -3.000  -0.1229   0.05804   0.04393  -0.0466  1.0000  0.2188  -1.1005   0.0000   0.0000   0.0000  -0.1306
  -2.500  -0.0513   0.05271   0.03787  -0.0528  1.0000  0.1852  -1.0840   0.0000   0.0000   0.0000  -0.7833
  -2.000   0.0203   0.04845   0.03266  -0.0577  1.0000  0.1675  -1.0467   0.0000   0.0000   0.0000   3.0990
  -1.500   0.0908   0.04450   0.02716  -0.0611  1.0000  0.1612  -1.1665   0.0000   0.0000   0.0000   0.9249
  -1.000   0.1575   0.04125   0.02273  -0.0625  1.0000  0.1584  -1.1511   0.0000   0.0000   0.0000   0.6479
  -0.500   0.2179   0.03815   0.01871  -0.0623  1.0000  0.1604  -1.0700   0.0000   0.0000   0.0000   0.5363
   0.000   0.2724   0.03515   0.01519  -0.0613  1.0000  0.1846  -0.9632   0.0000   0.0000   0.0000   0.4750
   0.500   0.3242   0.03237   0.01244  -0.0603  1.0000  0.2276  -0.9792   0.0000   0.0000   0.0000   0.4357
   1.000   0.3646   0.02939   0.01110  -0.0578  1.0000  1.0000  -0.9895   0.0000   0.0000   0.0000   0.4080
   1.500   0.4137   0.03015   0.01027  -0.0557  1.0000  1.0000  -0.9245   0.0000   0.0000   0.0000   0.3835
   2.000   0.4580   0.03106   0.00993  -0.0549  1.0000  1.0000  -0.6804   0.0000   0.0000   0.0000   0.3685
   2.500   0.4988   0.03238   0.01075  -0.0553  1.0000  1.0000  -0.7205   0.0000   0.0000   0.0000   0.3590
   3.000   0.5337   0.03449   0.01297  -0.0567  1.0000  1.0000  -0.7511   0.0000   0.0000   0.0000   0.3542
   3.500   0.6059   0.03854   0.01724  -0.0685  0.9469  1.0000  -0.7944   0.0000   0.0000   0.0000   0.3606
   4.000   0.7266   0.04254   0.02210  -0.0837  0.8148  1.0000  -1.2406   0.0000   0.0000   0.0000   0.3624
   4.500   0.8052   0.04609   0.02679  -0.0883  0.7402  1.0000  -2.0989   0.0000   0.0000   0.0000   0.3566
   5.000   0.8534   0.05050   0.03241  -0.0897  0.6934  1.0000  -2.7241   0.0000   0.0000   0.0000   0.3516
   7.000   0.9846   0.05739   0.04028  -0.0431  0.1036  1.0000  -3.3977   0.0000   0.0000   0.0000   0.2880
   7.500   1.0134   0.06526   0.04886  -0.0417  0.0914  1.0000  -3.4695   0.0000   0.0000   0.0000   0.2850
   8.000   1.0367   0.07429   0.05855  -0.0412  0.0869  1.0000  -3.5129   0.0000   0.0000   0.0000   0.2831
   8.500   1.0468   0.08520   0.07107  -0.0431  0.0861  1.0000  -3.4433   0.0000   0.0000   0.0000   0.2843
   9.000   1.0443   0.09642   0.08302  -0.0467  0.0866  1.0000  -3.3362   0.0000   0.0000   0.0000   0.2875
   9.500   1.0317   0.10831   0.09536  -0.0524  0.0879  1.0000  -3.1708   0.0000   0.0000   0.0000   0.2933
  10.000   1.0125   0.12210   0.10866  -0.0625  0.0909  1.0000  -2.9224   0.0000   0.0000   0.0000   0.3040


