xflr5 v6.62

 Calculated polar for: camber4_thick2

 1 1 Reynolds number fixed          Mach number fixed         

 xtrf =   1.000 (top)        1.000 (bottom)
 Mach =   0.000     Re =     0.015 e 6     Ncrit =   5.000

  alpha     CL        CD       CDp       Cm    Top Xtr Bot Xtr   Cpmin    Chinge    XCp    
 ------- -------- --------- --------- -------- ------- ------- -------- --------- ---------
  -5.000  -0.3762   0.07117   0.06047   0.0358  1.0000  0.7161  -0.8478   0.0000   0.0000   0.0000   0.3458
  -4.500  -0.3771   0.06849   0.05815   0.0291  1.0000  0.6347  -0.8852   0.0000   0.0000   0.0000   0.3278
  -4.000  -0.3438   0.06508   0.05483   0.0100  1.0000  0.5190  -0.9287   0.0000   0.0000   0.0000   0.2794
  -3.500  -0.2509   0.05980   0.04901  -0.0196  1.0000  0.3809  -0.9640   0.0000   0.0000   0.0000   0.1720
  -3.000  -0.1421   0.05447   0.04253  -0.0421  1.0000  0.2706  -0.9922   0.0000   0.0000   0.0000  -0.0469
  -2.500  -0.0538   0.05003   0.03711  -0.0525  1.0000  0.2024  -0.9981   0.0000   0.0000   0.0000  -0.7288
  -2.000   0.0237   0.04648   0.03254  -0.0579  1.0000  0.1586  -0.9839   0.0000   0.0000   0.0000   2.6995
  -1.500   0.0935   0.04249   0.02717  -0.0605  1.0000  0.1324  -1.1127   0.0000   0.0000   0.0000   0.8996
  -1.000   0.1591   0.03889   0.02253  -0.0619  1.0000  0.1284  -1.1092   0.0000   0.0000   0.0000   0.6404
  -0.500   0.2207   0.03601   0.01861  -0.0620  1.0000  0.1344  -1.0446   0.0000   0.0000   0.0000   0.5313
   0.000   0.2771   0.03356   0.01538  -0.0607  1.0000  0.1383  -0.9236   0.0000   0.0000   0.0000   0.4692
   0.500   0.3289   0.03078   0.01233  -0.0596  1.0000  0.1701  -0.9315   0.0000   0.0000   0.0000   0.4309
   1.000   0.3833   0.02797   0.01017  -0.0601  1.0000  0.2537  -0.9260   0.0000   0.0000   0.0000   0.4062
   1.500   0.4204   0.02711   0.00957  -0.0563  1.0000  1.0000  -0.8949   0.0000   0.0000   0.0000   0.3828
   2.000   0.4653   0.02804   0.00928  -0.0556  1.0000  1.0000  -0.6897   0.0000   0.0000   0.0000   0.3680
   2.500   0.5061   0.02943   0.01025  -0.0562  1.0000  1.0000  -0.7298   0.0000   0.0000   0.0000   0.3593
   3.000   0.5732   0.03207   0.01303  -0.0646  0.9597  1.0000  -0.7809   0.0000   0.0000   0.0000   0.3606
   3.500   0.7054   0.03442   0.01593  -0.0798  0.8068  1.0000  -0.9140   0.0000   0.0000   0.0000   0.3606
   4.000   0.7845   0.03664   0.01887  -0.0823  0.7146  1.0000  -1.8027   0.0000   0.0000   0.0000   0.3522
   4.500   0.8421   0.03963   0.02284  -0.0822  0.6568  1.0000  -2.5593   0.0000   0.0000   0.0000   0.3445
   5.500   0.8968   0.03837   0.02301  -0.0511  0.2917  1.0000  -2.8718   0.0000   0.0000   0.0000   0.3027
   6.000   0.9222   0.04353   0.02629  -0.0482  0.0941  1.0000  -3.0552   0.0000   0.0000   0.0000   0.2974
   6.500   0.9544   0.04937   0.03224  -0.0461  0.0805  1.0000  -3.2136   0.0000   0.0000   0.0000   0.2930
   7.000   0.9849   0.05590   0.03917  -0.0438  0.0732  1.0000  -3.3621   0.0000   0.0000   0.0000   0.2886
   7.500   1.0183   0.06324   0.04757  -0.0420  0.0681  1.0000  -3.4705   0.0000   0.0000   0.0000   0.2850
   8.000   1.0415   0.07188   0.05735  -0.0414  0.0643  1.0000  -3.5270   0.0000   0.0000   0.0000   0.2831
   8.500   1.0521   0.08206   0.06897  -0.0426  0.0625  1.0000  -3.5128   0.0000   0.0000   0.0000   0.2836
   9.000   1.0469   0.09304   0.08084  -0.0463  0.0636  1.0000  -3.3858   0.0000   0.0000   0.0000   0.2869
   9.500   1.0312   0.10478   0.09301  -0.0519  0.0663  1.0000  -3.1970   0.0000   0.0000   0.0000   0.2928
  10.000   1.0189   0.11740   0.10566  -0.0592  0.0689  1.0000  -3.0144   0.0000   0.0000   0.0000   0.3002


