xflr5 v6.62

 Calculated polar for: camber4_thick2

 1 1 Reynolds number fixed          Mach number fixed         

 xtrf =   1.000 (top)        1.000 (bottom)
 Mach =   0.000     Re =     0.010 e 6     Ncrit =   5.000

  alpha     CL        CD       CDp       Cm    Top Xtr Bot Xtr   Cpmin    Chinge    XCp    
 ------- -------- --------- --------- -------- ------- ------- -------- --------- ---------
  -5.000  -0.3867   0.08273   0.06950   0.0036  1.0000  0.4057  -1.0875   0.0000   0.0000   0.0000   0.2599
  -4.500  -0.3338   0.07787   0.06432  -0.0131  1.0000  0.3411  -1.1315   0.0000   0.0000   0.0000   0.2112
  -4.000  -0.2698   0.07152   0.05755  -0.0257  1.0000  0.2877  -1.1504   0.0000   0.0000   0.0000   0.1551
  -3.500  -0.2017   0.06529   0.05077  -0.0361  1.0000  0.2484  -1.1565   0.0000   0.0000   0.0000   0.0707
  -3.000  -0.1234   0.06009   0.04439  -0.0468  1.0000  0.2191  -1.1639   0.0000   0.0000   0.0000  -0.1299
  -2.500  -0.0553   0.05447   0.03806  -0.0526  1.0000  0.2046  -1.1388   0.0000   0.0000   0.0000  -0.7042
  -2.000   0.0175   0.05027   0.03275  -0.0580  1.0000  0.1935  -1.1007   0.0000   0.0000   0.0000   3.5691
  -1.500   0.0879   0.04632   0.02721  -0.0612  1.0000  0.1831  -1.2154   0.0000   0.0000   0.0000   0.9494
  -1.000   0.1542   0.04290   0.02265  -0.0627  1.0000  0.1829  -1.1817   0.0000   0.0000   0.0000   0.6580
  -0.500   0.2140   0.03972   0.01862  -0.0627  1.0000  0.2005  -1.0837   0.0000   0.0000   0.0000   0.5435
   0.000   0.2680   0.03669   0.01529  -0.0616  1.0000  0.2260  -1.0101   0.0000   0.0000   0.0000   0.4801
   0.500   0.3195   0.03347   0.01285  -0.0610  1.0000  0.3012  -1.0257   0.0000   0.0000   0.0000   0.4407
   1.000   0.3598   0.03214   0.01182  -0.0573  1.0000  1.0000  -1.0445   0.0000   0.0000   0.0000   0.4085
   1.500   0.4082   0.03289   0.01089  -0.0552  1.0000  1.0000  -0.9421   0.0000   0.0000   0.0000   0.3842
   2.000   0.4521   0.03380   0.01050  -0.0544  1.0000  1.0000  -0.6726   0.0000   0.0000   0.0000   0.3690
   2.500   0.4928   0.03508   0.01122  -0.0546  1.0000  1.0000  -0.7124   0.0000   0.0000   0.0000   0.3590
   3.000   0.5287   0.03700   0.01323  -0.0556  1.0000  1.0000  -0.7457   0.0000   0.0000   0.0000   0.3531
   3.500   0.5567   0.04003   0.01637  -0.0579  1.0000  1.0000  -0.7624   0.0000   0.0000   0.0000   0.3516
   4.000   0.6297   0.04529   0.02200  -0.0713  0.9440  1.0000  -0.8014   0.0000   0.0000   0.0000   0.3604
   4.500   0.7284   0.05056   0.02827  -0.0846  0.8372  1.0000  -1.4311   0.0000   0.0000   0.0000   0.3630
   5.000   0.8024   0.05550   0.03454  -0.0911  0.7723  1.0000  -2.2140   0.0000   0.0000   0.0000   0.3600
   7.000   0.9889   0.06275   0.04681  -0.0460  0.1665  1.0000  -3.3648   0.0000   0.0000   0.0000   0.2910
   8.000   1.0259   0.08079   0.06564  -0.0462  0.1285  1.0000  -3.3373   0.0000   0.0000   0.0000   0.2888
   8.500   1.0350   0.09031   0.07535  -0.0471  0.1194  1.0000  -3.3241   0.0000   0.0000   0.0000   0.2889
   9.000   1.0287   0.10232   0.08772  -0.0521  0.1193  1.0000  -3.1884   0.0000   0.0000   0.0000   0.2937


