xflr5 v6.62

 Calculated polar for: E205  (10.48%)

 1 1 Reynolds number fixed          Mach number fixed         

 xtrf =   1.000 (top)        1.000 (bottom)
 Mach =   0.000     Re =     0.010 e 6     Ncrit =   5.000

  alpha     CL        CD       CDp       Cm    Top Xtr Bot Xtr   Cpmin    Chinge    XCp    
 ------- -------- --------- --------- -------- ------- ------- -------- --------- ---------
  -5.000  -0.3684   0.06793   0.05351  -0.0310  1.0000  0.2411  -2.1245   0.0000   0.0000   0.0000   0.1622
  -4.500  -0.3496   0.06158   0.04690  -0.0306  1.0000  0.2643  -2.1648   0.0000   0.0000   0.0000   0.1588
  -4.000  -0.3189   0.05546   0.04011  -0.0309  1.0000  0.2941  -2.2026   0.0000   0.0000   0.0000   0.1495
  -3.500  -0.2964   0.05075   0.03572  -0.0261  1.0000  0.3707  -2.1635   0.0000   0.0000   0.0000   0.1584
  -3.000  -0.2691   0.04580   0.03114  -0.0210  1.0000  0.4800  -2.1231   0.0000   0.0000   0.0000   0.1682
  -2.500  -0.1333   0.03838   0.02225  -0.0327  1.0000  1.0000  -1.7062   0.0000   0.0000   0.0000  -0.0022
  -2.000  -0.1157   0.03844   0.02062  -0.0303  1.0000  1.0000  -1.5490   0.0000   0.0000   0.0000  -0.0189
  -1.500  -0.0920   0.03890   0.01967  -0.0281  1.0000  1.0000  -1.3511   0.0000   0.0000   0.0000  -0.0628
  -1.000  -0.0658   0.03959   0.01918  -0.0262  1.0000  1.0000  -1.1401   0.0000   0.0000   0.0000  -0.1559
  -0.500  -0.0381   0.04047   0.01906  -0.0246  1.0000  1.0000  -0.9770   0.0000   0.0000   0.0000  -0.4045
   0.000  -0.0095   0.04154   0.01928  -0.0233  1.0000  1.0000  -0.8387   0.0000   0.0000   0.0000  -2.2246
   0.500   0.0197   0.04279   0.01980  -0.0222  1.0000  1.0000  -0.7029   0.0000   0.0000   0.0000   1.3782
   1.000   0.0492   0.04421   0.02062  -0.0214  1.0000  1.0000  -0.5713   0.0000   0.0000   0.0000   0.6818
   1.500   0.0788   0.04580   0.02172  -0.0208  1.0000  1.0000  -0.4451   0.0000   0.0000   0.0000   0.5097
   2.000   0.1082   0.04757   0.02310  -0.0203  1.0000  1.0000  -0.4604   0.0000   0.0000   0.0000   0.4332
   2.500   0.1375   0.04952   0.02476  -0.0201  1.0000  1.0000  -0.4782   0.0000   0.0000   0.0000   0.3908
   3.000   0.1665   0.05165   0.02677  -0.0200  1.0000  1.0000  -0.4975   0.0000   0.0000   0.0000   0.3643
   3.500   0.2032   0.05432   0.02921  -0.0216  0.9938  1.0000  -0.5243   0.0000   0.0000   0.0000   0.3505
   4.000   0.2659   0.05843   0.03317  -0.0282  0.9661  1.0000  -0.5717   0.0000   0.0000   0.0000   0.3502
   4.500   0.3207   0.06238   0.03711  -0.0332  0.9379  1.0000  -0.6218   0.0000   0.0000   0.0000   0.3475
   5.000   0.3673   0.06657   0.04136  -0.0370  0.9229  1.0000  -0.6692   0.0000   0.0000   0.0000   0.3443
   5.500   0.4111   0.07060   0.04558  -0.0401  0.8963  1.0000  -0.7214   0.0000   0.0000   0.0000   0.3409
   6.000   0.4528   0.07484   0.05007  -0.0428  0.8671  1.0000  -0.7789   0.0000   0.0000   0.0000   0.3375
   6.500   0.4897   0.07963   0.05516  -0.0454  0.8504  1.0000  -0.8352   0.0000   0.0000   0.0000   0.3352
   7.000   0.5383   0.08507   0.06102  -0.0490  0.8146  1.0000  -0.9221   0.0000   0.0000   0.0000   0.3332
   7.500   0.5569   0.08926   0.06616  -0.0489  0.7923  1.0000  -0.9680   0.0000   0.0000   0.0000   0.3294
   8.000   0.5925   0.09483   0.07216  -0.0509  0.7581  1.0000  -1.0536   0.0000   0.0000   0.0000   0.3271
   8.500   0.6343   0.10152   0.07935  -0.0538  0.7241  1.0000  -1.2532   0.0000   0.0000   0.0000   0.3257
   9.000   0.6760   0.10838   0.08676  -0.0559  0.6808  1.0000  -1.4558   0.0000   0.0000   0.0000   0.3232
   9.500   0.6748   0.11280   0.09152  -0.0545  0.6517  1.0000  -1.5223   0.0000   0.0000   0.0000   0.3208
  10.000   0.6987   0.11924   0.09842  -0.0550  0.6093  1.0000  -1.6643   0.0000   0.0000   0.0000   0.3183


