xflr5 v6.62

 Calculated polar for: E205  (10.48%)

 1 1 Reynolds number fixed          Mach number fixed         

 xtrf =   1.000 (top)        1.000 (bottom)
 Mach =   0.000     Re =     0.012 e 6     Ncrit =   5.000

  alpha     CL        CD       CDp       Cm    Top Xtr Bot Xtr   Cpmin    Chinge    XCp    
 ------- -------- --------- --------- -------- ------- ------- -------- --------- ---------
  -5.000  -0.3632   0.06291   0.04924  -0.0365  1.0000  0.1761  -2.1827   0.0000   0.0000   0.0000   0.1458
  -4.500  -0.3411   0.05747   0.04329  -0.0356  1.0000  0.2003  -2.2030   0.0000   0.0000   0.0000   0.1421
  -4.000  -0.3171   0.05262   0.03823  -0.0332  1.0000  0.2430  -2.1912   0.0000   0.0000   0.0000   0.1416
  -3.500  -0.2811   0.04722   0.03235  -0.0321  1.0000  0.2872  -2.2014   0.0000   0.0000   0.0000   0.1322
  -3.000  -0.2529   0.04296   0.02840  -0.0279  1.0000  0.3889  -2.1481   0.0000   0.0000   0.0000   0.1360
  -2.500  -0.2321   0.03830   0.02533  -0.0189  1.0000  0.5972  -2.0689   0.0000   0.0000   0.0000   0.1647
  -2.000  -0.1229   0.03559   0.01972  -0.0296  1.0000  1.0000  -1.6112   0.0000   0.0000   0.0000   0.0025
  -1.500  -0.0988   0.03611   0.01884  -0.0275  1.0000  1.0000  -1.4115   0.0000   0.0000   0.0000  -0.0351
  -1.000  -0.0722   0.03685   0.01844  -0.0257  1.0000  1.0000  -1.1964   0.0000   0.0000   0.0000  -0.1129
  -0.500  -0.0441   0.03779   0.01842  -0.0242  1.0000  1.0000  -0.9978   0.0000   0.0000   0.0000  -0.3068
   0.000  -0.0151   0.03890   0.01873  -0.0230  1.0000  1.0000  -0.8567   0.0000   0.0000   0.0000  -1.2904
   0.500   0.0146   0.04019   0.01934  -0.0221  1.0000  1.0000  -0.7184   0.0000   0.0000   0.0000   1.7683
   1.000   0.0444   0.04166   0.02024  -0.0214  1.0000  1.0000  -0.5845   0.0000   0.0000   0.0000   0.7275
   1.500   0.0743   0.04329   0.02141  -0.0208  1.0000  1.0000  -0.4560   0.0000   0.0000   0.0000   0.5261
   2.000   0.1411   0.04628   0.02397  -0.0273  0.9740  1.0000  -0.4771   0.0000   0.0000   0.0000   0.4395
   2.500   0.1992   0.04923   0.02665  -0.0320  0.9517  1.0000  -0.5152   0.0000   0.0000   0.0000   0.4067
   3.000   0.2445   0.05195   0.02923  -0.0346  0.9338  1.0000  -0.5457   0.0000   0.0000   0.0000   0.3869
   3.500   0.2983   0.05512   0.03223  -0.0384  0.9073  1.0000  -0.5900   0.0000   0.0000   0.0000   0.3738
   4.000   0.3497   0.05848   0.03553  -0.0416  0.8817  1.0000  -0.6363   0.0000   0.0000   0.0000   0.3640
   4.500   0.3883   0.06183   0.03891  -0.0433  0.8660  1.0000  -0.6766   0.0000   0.0000   0.0000   0.3561
   5.000   0.4294   0.06541   0.04259  -0.0451  0.8422  1.0000  -0.7275   0.0000   0.0000   0.0000   0.3492
   5.500   0.4839   0.06973   0.04713  -0.0486  0.8138  1.0000  -0.7967   0.0000   0.0000   0.0000   0.3443
   6.000   0.5032   0.07327   0.05090  -0.0480  0.7976  1.0000  -0.8373   0.0000   0.0000   0.0000   0.3387
   6.500   0.5511   0.07798   0.05596  -0.0505  0.7672  1.0000  -0.9202   0.0000   0.0000   0.0000   0.3346
   7.000   0.5781   0.08222   0.06108  -0.0507  0.7415  1.0000  -0.9825   0.0000   0.0000   0.0000   0.3302
   7.500   0.6086   0.08707   0.06629  -0.0514  0.7137  1.0000  -1.0589   0.0000   0.0000   0.0000   0.3266
   8.000   0.6567   0.09285   0.07255  -0.0536  0.6779  1.0000  -1.2625   0.0000   0.0000   0.0000   0.3232
   8.500   0.6661   0.09742   0.07747  -0.0524  0.6472  1.0000  -1.3748   0.0000   0.0000   0.0000   0.3199
   9.000   0.6898   0.10288   0.08335  -0.0523  0.6094  1.0000  -1.5311   0.0000   0.0000   0.0000   0.3165
   9.500   0.7205   0.10915   0.09009  -0.0527  0.5715  1.0000  -1.7083   0.0000   0.0000   0.0000   0.3134
  10.000   0.7582   0.11597   0.09747  -0.0530  0.5300  1.0000  -1.9100   0.0000   0.0000   0.0000   0.3098


