xflr5 v6.62

 Calculated polar for: E205  (10.48%)

 1 1 Reynolds number fixed          Mach number fixed         

 xtrf =   1.000 (top)        1.000 (bottom)
 Mach =   0.000     Re =     0.008 e 6     Ncrit =   5.000

  alpha     CL        CD       CDp       Cm    Top Xtr Bot Xtr   Cpmin    Chinge    XCp    
 ------- -------- --------- --------- -------- ------- ------- -------- --------- ---------
  -5.000  -0.3729   0.07241   0.05661  -0.0252  1.0000  0.3083  -2.1348   0.0000   0.0000   0.0000   0.1787
  -4.500  -0.3550   0.06631   0.05037  -0.0239  1.0000  0.3437  -2.1580   0.0000   0.0000   0.0000   0.1792
  -4.000  -0.3372   0.06081   0.04481  -0.0210  1.0000  0.4030  -2.1602   0.0000   0.0000   0.0000   0.1843
  -3.500  -0.3114   0.05497   0.03934  -0.0161  1.0000  0.4774  -2.1363   0.0000   0.0000   0.0000   0.1946
  -3.000  -0.2807   0.04935   0.03451  -0.0080  1.0000  0.6452  -2.0758   0.0000   0.0000   0.0000   0.2176
  -2.500  -0.1268   0.04236   0.02352  -0.0335  1.0000  1.0000  -1.6390   0.0000   0.0000   0.0000  -0.0218
  -2.000  -0.1079   0.04237   0.02187  -0.0311  1.0000  1.0000  -1.4734   0.0000   0.0000   0.0000  -0.0458
  -1.500  -0.0841   0.04275   0.02082  -0.0289  1.0000  1.0000  -1.2776   0.0000   0.0000   0.0000  -0.1008
  -1.000  -0.0581   0.04337   0.02021  -0.0269  1.0000  1.0000  -1.0862   0.0000   0.0000   0.0000  -0.2204
  -0.500  -0.0309   0.04420   0.01997  -0.0251  1.0000  1.0000  -0.9508   0.0000   0.0000   0.0000  -0.5755
   0.000  -0.0027   0.04521   0.02007  -0.0237  1.0000  1.0000  -0.8157   0.0000   0.0000   0.0000  -8.6522
   0.500   0.0261   0.04640   0.02049  -0.0225  1.0000  1.0000  -0.6830   0.0000   0.0000   0.0000   1.1140
   1.000   0.0551   0.04776   0.02121  -0.0215  1.0000  1.0000  -0.5542   0.0000   0.0000   0.0000   0.6381
   1.500   0.0843   0.04930   0.02222  -0.0208  1.0000  1.0000  -0.4514   0.0000   0.0000   0.0000   0.4929
   2.000   0.1134   0.05102   0.02352  -0.0203  1.0000  1.0000  -0.4670   0.0000   0.0000   0.0000   0.4240
   2.500   0.1423   0.05292   0.02510  -0.0199  1.0000  1.0000  -0.4847   0.0000   0.0000   0.0000   0.3846
   3.000   0.1710   0.05500   0.02703  -0.0197  1.0000  1.0000  -0.5042   0.0000   0.0000   0.0000   0.3595
   3.500   0.1994   0.05728   0.02906  -0.0196  1.0000  1.0000  -0.5256   0.0000   0.0000   0.0000   0.3426
   4.000   0.2273   0.05975   0.03137  -0.0198  1.0000  1.0000  -0.5490   0.0000   0.0000   0.0000   0.3306
   4.500   0.2546   0.06243   0.03397  -0.0200  1.0000  1.0000  -0.5749   0.0000   0.0000   0.0000   0.3220
   5.000   0.2814   0.06533   0.03686  -0.0205  1.0000  1.0000  -0.6028   0.0000   0.0000   0.0000   0.3157
   5.500   0.3074   0.06846   0.04006  -0.0211  1.0000  1.0000  -0.6334   0.0000   0.0000   0.0000   0.3111
   6.000   0.3393   0.07225   0.04401  -0.0232  0.9940  1.0000  -0.6716   0.0000   0.0000   0.0000   0.3106
   6.500   0.4029   0.07852   0.05065  -0.0317  0.9558  1.0000  -0.7453   0.0000   0.0000   0.0000   0.3207
   7.000   0.4384   0.08341   0.05589  -0.0351  0.9397  1.0000  -0.7959   0.0000   0.0000   0.0000   0.3216
   7.500   0.4841   0.08933   0.06230  -0.0402  0.9058  1.0000  -0.8725   0.0000   0.0000   0.0000   0.3243
   8.000   0.5227   0.09528   0.06936  -0.0441  0.8754  1.0000  -0.9386   0.0000   0.0000   0.0000   0.3252
   8.500   0.5591   0.10164   0.07623  -0.0478  0.8440  1.0000  -1.0261   0.0000   0.0000   0.0000   0.3259
   9.000   0.5949   0.10836   0.08347  -0.0512  0.8042  1.0000  -1.1962   0.0000   0.0000   0.0000   0.3261
   9.500   0.6297   0.11586   0.09152  -0.0546  0.7677  1.0000  -1.3590   0.0000   0.0000   0.0000   0.3263
  10.000   0.6626   0.12362   0.09984  -0.0573  0.7248  1.0000  -1.5153   0.0000   0.0000   0.0000   0.3258


