xflr5 v6.62

 Calculated polar for: E205  (10.48%)

 1 1 Reynolds number fixed          Mach number fixed         

 xtrf =   1.000 (top)        1.000 (bottom)
 Mach =   0.000     Re =     0.015 e 6     Ncrit =   5.000

  alpha     CL        CD       CDp       Cm    Top Xtr Bot Xtr   Cpmin    Chinge    XCp    
 ------- -------- --------- --------- -------- ------- ------- -------- --------- ---------
  -5.000  -0.3633   0.05950   0.04724  -0.0376  1.0000  0.1429  -2.1534   0.0000   0.0000   0.0000   0.1429
  -4.500  -0.3403   0.05352   0.04058  -0.0369  1.0000  0.1505  -2.2018   0.0000   0.0000   0.0000   0.1378
  -4.000  -0.3065   0.04807   0.03386  -0.0365  1.0000  0.1653  -2.2649   0.0000   0.0000   0.0000   0.1270
  -3.500  -0.2808   0.04422   0.03022  -0.0336  1.0000  0.2194  -2.2035   0.0000   0.0000   0.0000   0.1265
  -3.000  -0.2429   0.04006   0.02577  -0.0316  1.0000  0.2943  -2.1819   0.0000   0.0000   0.0000   0.1158
  -2.500  -0.2157   0.03604   0.02291  -0.0265  1.0000  0.4616  -2.0938   0.0000   0.0000   0.0000   0.1230
  -2.000  -0.1326   0.03250   0.01877  -0.0287  1.0000  1.0000  -1.6874   0.0000   0.0000   0.0000   0.0274
  -1.500  -0.1076   0.03307   0.01795  -0.0268  1.0000  1.0000  -1.4854   0.0000   0.0000   0.0000  -0.0053
  -1.000  -0.0803   0.03388   0.01767  -0.0252  1.0000  1.0000  -1.2651   0.0000   0.0000   0.0000  -0.0696
  -0.500  -0.0516   0.03488   0.01776  -0.0238  1.0000  1.0000  -1.0402   0.0000   0.0000   0.0000  -0.2188
   0.000  -0.0001   0.03651   0.01852  -0.0268  0.9871  1.0000  -0.8365   0.0000   0.0000   0.0000  -297.4153
   0.500   0.0609   0.03850   0.01976  -0.0314  0.9655  1.0000  -0.6403   0.0000   0.0000   0.0000   0.7656
   1.000   0.1235   0.04064   0.02133  -0.0361  0.9396  1.0000  -0.4682   0.0000   0.0000   0.0000   0.5404
   1.500   0.1859   0.04289   0.02316  -0.0404  0.9110  1.0000  -0.5065   0.0000   0.0000   0.0000   0.4649
   2.000   0.2466   0.04544   0.02544  -0.0445  0.8914  1.0000  -0.5448   0.0000   0.0000   0.0000   0.4276
   2.500   0.2825   0.04760   0.02747  -0.0446  0.8716  1.0000  -0.5717   0.0000   0.0000   0.0000   0.4044
   3.000   0.3362   0.05025   0.02993  -0.0472  0.8468  1.0000  -0.6150   0.0000   0.0000   0.0000   0.3865
   3.500   0.3863   0.05301   0.03262  -0.0492  0.8232  1.0000  -0.6600   0.0000   0.0000   0.0000   0.3732
   4.000   0.4218   0.05602   0.03561  -0.0496  0.8080  1.0000  -0.7002   0.0000   0.0000   0.0000   0.3631
   4.500   0.4622   0.05902   0.03870  -0.0504  0.7843  1.0000  -0.7499   0.0000   0.0000   0.0000   0.3539
   5.000   0.5002   0.06224   0.04205  -0.0507  0.7595  1.0000  -0.8037   0.0000   0.0000   0.0000   0.3458
   5.500   0.5328   0.06587   0.04589  -0.0511  0.7419  1.0000  -0.8599   0.0000   0.0000   0.0000   0.3400
   6.000   0.5707   0.06964   0.04991  -0.0515  0.7166  1.0000  -0.9297   0.0000   0.0000   0.0000   0.3339
   6.500   0.6075   0.07348   0.05457  -0.0518  0.6903  1.0000  -1.0116   0.0000   0.0000   0.0000   0.3285
   7.000   0.6319   0.07774   0.05911  -0.0513  0.6664  1.0000  -1.0804   0.0000   0.0000   0.0000   0.3239
   7.500   0.6940   0.08225   0.06415  -0.0529  0.6321  1.0000  -1.3231   0.0000   0.0000   0.0000   0.3186
   8.000   0.6846   0.08666   0.06873  -0.0503  0.6054  1.0000  -1.3830   0.0000   0.0000   0.0000   0.3153
   8.500   0.7180   0.09133   0.07381  -0.0498  0.5679  1.0000  -1.5876   0.0000   0.0000   0.0000   0.3106
   9.000   0.7665   0.09634   0.07940  -0.0495  0.5303  1.0000  -1.8509   0.0000   0.0000   0.0000   0.3055
   9.500   0.7618   0.10151   0.08483  -0.0480  0.4947  1.0000  -1.9145   0.0000   0.0000   0.0000   0.3033
  10.000   0.7715   0.10726   0.09090  -0.0471  0.4591  1.0000  -2.0242   0.0000   0.0000   0.0000   0.3009


