xflr5 v6.62

 Calculated polar for: E205  (10.48%)

 1 1 Reynolds number fixed          Mach number fixed         

 xtrf =   1.000 (top)        1.000 (bottom)
 Mach =   0.000     Re =     0.020 e 6     Ncrit =   5.000

  alpha     CL        CD       CDp       Cm    Top Xtr Bot Xtr   Cpmin    Chinge    XCp    
 ------- -------- --------- --------- -------- ------- ------- -------- --------- ---------
  -5.000  -0.3640   0.05290   0.04169  -0.0387  1.0000  0.0842  -2.3184   0.0000   0.0000   0.0000   0.1395
  -4.500  -0.3397   0.04804   0.03586  -0.0376  1.0000  0.0962  -2.3369   0.0000   0.0000   0.0000   0.1352
  -4.000  -0.3181   0.04461   0.03226  -0.0350  1.0000  0.1189  -2.2315   0.0000   0.0000   0.0000   0.1361
  -3.500  -0.2812   0.04015   0.02692  -0.0335  1.0000  0.1363  -2.2471   0.0000   0.0000   0.0000   0.1269
  -3.000  -0.2474   0.03713   0.02375  -0.0315  1.0000  0.1924  -2.2005   0.0000   0.0000   0.0000   0.1187
  -2.500  -0.2097   0.03363   0.02071  -0.0295  1.0000  0.3146  -2.1378   0.0000   0.0000   0.0000   0.1052
  -1.500  -0.0796   0.03011   0.01698  -0.0330  0.9783  1.0000  -1.4567   0.0000   0.0000   0.0000  -0.1732
  -1.000   0.0011   0.03146   0.01700  -0.0403  0.9476  1.0000  -1.0660   0.0000   0.0000   0.0000  36.5771
  -0.500   0.0690   0.03283   0.01747  -0.0451  0.9228  1.0000  -0.7949   0.0000   0.0000   0.0000   0.9072
   0.000   0.1240   0.03419   0.01820  -0.0474  0.8982  1.0000  -0.6074   0.0000   0.0000   0.0000   0.6329
   0.500   0.1807   0.03565   0.01915  -0.0497  0.8715  1.0000  -0.5085   0.0000   0.0000   0.0000   0.5243
   1.000   0.2414   0.03726   0.02038  -0.0525  0.8477  1.0000  -0.5466   0.0000   0.0000   0.0000   0.4659
   1.500   0.2876   0.03907   0.02197  -0.0532  0.8280  1.0000  -0.5775   0.0000   0.0000   0.0000   0.4330
   2.000   0.3388   0.04103   0.02376  -0.0546  0.8087  1.0000  -0.6148   0.0000   0.0000   0.0000   0.4086
   2.500   0.3862   0.04290   0.02548  -0.0550  0.7842  1.0000  -0.6542   0.0000   0.0000   0.0000   0.3894
   3.000   0.4313   0.04517   0.02764  -0.0554  0.7655  1.0000  -0.6981   0.0000   0.0000   0.0000   0.3750
   3.500   0.4599   0.04771   0.03016  -0.0540  0.7471  1.0000  -0.7319   0.0000   0.0000   0.0000   0.3636
   4.000   0.5322   0.05004   0.03257  -0.0573  0.7283  1.0000  -0.8142   0.0000   0.0000   0.0000   0.3535
   4.500   0.5376   0.05287   0.03544  -0.0531  0.7034  1.0000  -0.8391   0.0000   0.0000   0.0000   0.3441
   5.000   0.5882   0.05579   0.03858  -0.0543  0.6868  1.0000  -0.9187   0.0000   0.0000   0.0000   0.3372
   5.500   0.6064   0.05910   0.04203  -0.0521  0.6636  1.0000  -0.9662   0.0000   0.0000   0.0000   0.3302
   6.000   0.6512   0.06196   0.04562  -0.0518  0.6400  1.0000  -1.0667   0.0000   0.0000   0.0000   0.3235
   6.500   0.6711   0.06580   0.04967  -0.0503  0.6177  1.0000  -1.1361   0.0000   0.0000   0.0000   0.3183
   7.000   0.7170   0.06861   0.05285  -0.0495  0.5883  1.0000  -1.3436   0.0000   0.0000   0.0000   0.3120
   7.500   0.7227   0.07322   0.05766  -0.0476  0.5618  1.0000  -1.4632   0.0000   0.0000   0.0000   0.3082
   8.000   0.7839   0.07559   0.06056  -0.0464  0.5293  1.0000  -1.7933   0.0000   0.0000   0.0000   0.3011
   8.500   0.7790   0.08064   0.06584  -0.0444  0.4955  1.0000  -1.8749   0.0000   0.0000   0.0000   0.2983
   9.000   0.7939   0.08515   0.07068  -0.0426  0.4600  1.0000  -2.0326   0.0000   0.0000   0.0000   0.2945
   9.500   0.8225   0.08874   0.07471  -0.0403  0.4221  1.0000  -2.2528   0.0000   0.0000   0.0000   0.2892
  10.000   0.8607   0.09157   0.07806  -0.0373  0.3840  1.0000  -2.5204   0.0000   0.0000   0.0000   0.2830


