xflr5 v6.62

 Calculated polar for: S1223

 1 1 Reynolds number fixed          Mach number fixed         

 xtrf =   1.000 (top)        1.000 (bottom)
 Mach =   0.000     Re =     0.020 e 6     Ncrit =   5.000

  alpha     CL        CD       CDp       Cm    Top Xtr Bot Xtr   Cpmin    Chinge    XCp    
 ------- -------- --------- --------- -------- ------- ------- -------- --------- ---------
  -5.000  -0.2224   0.14107   0.13316  -0.0098  0.9880  0.2357  -0.9768   0.0000   0.0000   0.0000   0.1949
  -4.500  -0.1572   0.12944   0.12158  -0.0182  0.9601  0.2558  -0.9084   0.0000   0.0000   0.0000   0.1187
  -4.000  -0.1496   0.13378   0.12604  -0.0286  0.9165  0.2761  -0.9515   0.0000   0.0000   0.0000   0.0423
  -3.500  -0.0923   0.11954   0.11175  -0.0293  0.8886  0.2993  -0.8704   0.0000   0.0000   0.0000  -0.0923
  -3.000  -0.0856   0.12418   0.11646  -0.0398  0.8477  0.3175  -0.9158   0.0000   0.0000   0.0000  -0.2412
  -2.000  -0.0055   0.10468   0.09671  -0.0546  0.7907  0.1905  -0.9883   0.0000   0.0000   0.0000  -9.9807
  -1.500   0.0579   0.09677   0.08851  -0.0730  0.7674  0.1345  -1.1018   0.0000   0.0000   0.0000   1.5367
  -1.000   0.1205   0.09009   0.08170  -0.0853  0.7455  0.1222  -1.1219   0.0000   0.0000   0.0000   0.9675
  -0.500   0.2482   0.08139   0.07245  -0.1163  0.7206  0.1117  -1.2057   0.0000   0.0000   0.0000   0.7220
   0.000   0.4283   0.07160   0.06178  -0.1513  0.7008  0.1122  -1.1685   0.0000   0.0000   0.0000   0.6038
   0.500   0.5702   0.06800   0.05758  -0.1745  0.6824  0.1302  -0.9798   0.0000   0.0000   0.0000   0.5551
   1.000   0.7218   0.06602   0.05464  -0.1964  0.6670  0.1842  -1.0420   0.0000   0.0000   0.0000   0.5200
   1.500   0.7864   0.06776   0.05654  -0.1997  0.6476  0.3386  -1.0862   0.0000   0.0000   0.0000   0.5012
   2.000   0.8260   0.06876   0.05759  -0.1951  0.6328  0.5267  -1.1215   0.0000   0.0000   0.0000   0.4827
   2.500   0.8501   0.07395   0.06249  -0.1962  0.6154  0.5918  -1.1227   0.0000   0.0000   0.0000   0.4765
   3.000   0.9040   0.07603   0.06429  -0.1973  0.6058  0.6737  -1.1659   0.0000   0.0000   0.0000   0.4631
   3.500   0.9169   0.08235   0.07060  -0.1979  0.5940  0.7304  -1.1614   0.0000   0.0000   0.0000   0.4600
   4.000   0.9157   0.08719   0.07570  -0.1951  0.5792  0.8446  -1.1479   0.0000   0.0000   0.0000   0.4565
   4.500   1.0038   0.09111   0.07862  -0.2036  0.5668  1.0000  -1.2246   0.0000   0.0000   0.0000   0.4454
   5.000   1.0019   0.10019   0.08753  -0.2050  0.5584  1.0000  -1.2019   0.0000   0.0000   0.0000   0.4465
   5.500   1.0021   0.10832   0.09553  -0.2058  0.5486  1.0000  -1.1820   0.0000   0.0000   0.0000   0.4467
   6.000   1.0344   0.11376   0.10061  -0.2066  0.5358  1.0000  -1.2155   0.0000   0.0000   0.0000   0.4401
   6.500   1.0862   0.11846   0.10495  -0.2075  0.5269  1.0000  -1.2757   0.0000   0.0000   0.0000   0.4305
   7.000   1.0674   0.12763   0.11425  -0.2080  0.5210  1.0000  -1.2369   0.0000   0.0000   0.0000   0.4338
   7.500   1.0657   0.13494   0.12158  -0.2083  0.5116  1.0000  -1.2262   0.0000   0.0000   0.0000   0.4337
   8.000   1.0930   0.14042   0.12694  -0.2085  0.4984  1.0000  -1.2590   0.0000   0.0000   0.0000   0.4280
   8.500   1.1354   0.14648   0.13287  -0.2091  0.4911  1.0000  -1.3174   0.0000   0.0000   0.0000   0.4205
   9.000   1.1226   0.15435   0.14086  -0.2102  0.4843  1.0000  -1.2900   0.0000   0.0000   0.0000   0.4228
   9.500   1.1238   0.16034   0.14695  -0.2107  0.4701  1.0000  -1.2859   0.0000   0.0000   0.0000   0.4222
  10.000   1.1477   0.16674   0.15339  -0.2114  0.4607  1.0000  -1.3255   0.0000   0.0000   0.0000   0.4181


