xflr5 v6.62

 Calculated polar for: S1223

 1 1 Reynolds number fixed          Mach number fixed         

 xtrf =   1.000 (top)        1.000 (bottom)
 Mach =   0.000     Re =     0.015 e 6     Ncrit =   5.000

  alpha     CL        CD       CDp       Cm    Top Xtr Bot Xtr   Cpmin    Chinge    XCp    
 ------- -------- --------- --------- -------- ------- ------- -------- --------- ---------
  -5.000  -0.2344   0.14171   0.13270   0.0020  1.0000  0.3648  -0.9426   0.0000   0.0000   0.0000   0.2475
  -4.500  -0.2287   0.13581   0.12708   0.0047  1.0000  0.3768  -0.9267   0.0000   0.0000   0.0000   0.2598
  -4.000  -0.2438   0.13530   0.12689   0.0076  0.9974  0.3908  -0.9384   0.0000   0.0000   0.0000   0.2716
  -3.500  -0.2155   0.13306   0.12478  -0.0012  0.9665  0.4110  -0.9404   0.0000   0.0000   0.0000   0.2333
  -3.000  -0.1680   0.12553   0.11713  -0.0078  0.9329  0.4269  -0.9101   0.0000   0.0000   0.0000   0.1896
  -2.500  -0.1591   0.12471   0.11646  -0.0115  0.9000  0.4554  -0.9210   0.0000   0.0000   0.0000   0.1635
  -2.000  -0.1356   0.12077   0.11250  -0.0165  0.8710  0.4463  -0.9240   0.0000   0.0000   0.0000   0.1127
  -1.500  -0.0586   0.11116   0.10216  -0.0549  0.8407  0.1646  -1.1654   0.0000   0.0000   0.0000  -0.7195
  -1.000  -0.0162   0.10567   0.09662  -0.0629  0.8152  0.1534  -1.1723   0.0000   0.0000   0.0000  -3.7451
  -0.500   0.0836   0.09906   0.08955  -0.0905  0.7951  0.1400  -1.2493   0.0000   0.0000   0.0000   1.3494
   0.000   0.1766   0.09303   0.08324  -0.1071  0.7745  0.1382  -1.2082   0.0000   0.0000   0.0000   0.8627
   0.500   0.2948   0.08801   0.07777  -0.1308  0.7488  0.1418  -1.1502   0.0000   0.0000   0.0000   0.6957
   1.000   0.4170   0.08630   0.07542  -0.1533  0.7297  0.1709  -1.0173   0.0000   0.0000   0.0000   0.6175
   1.500   0.5685   0.08519   0.07337  -0.1790  0.7140  0.2038  -0.9594   0.0000   0.0000   0.0000   0.5633
   2.000   0.6369   0.08738   0.07542  -0.1863  0.6974  0.2832  -0.9352   0.0000   0.0000   0.0000   0.5401
   2.500   0.6895   0.08843   0.07673  -0.1857  0.6801  0.4810  -0.9524   0.0000   0.0000   0.0000   0.5160
   3.000   0.7244   0.09057   0.07872  -0.1841  0.6675  0.6418  -0.9742   0.0000   0.0000   0.0000   0.4999
   3.500   0.7410   0.09451   0.08264  -0.1836  0.6584  0.7242  -0.9739   0.0000   0.0000   0.0000   0.4928
   4.000   0.7674   0.09782   0.08586  -0.1843  0.6499  0.8413  -0.9830   0.0000   0.0000   0.0000   0.4844
   4.500   0.8573   0.10412   0.09103  -0.1975  0.6347  1.0000  -1.0427   0.0000   0.0000   0.0000   0.4738
   5.000   0.8800   0.11095   0.09734  -0.2010  0.6206  1.0000  -1.0462   0.0000   0.0000   0.0000   0.4710
   5.500   0.9107   0.11777   0.10364  -0.2043  0.6144  1.0000  -1.0583   0.0000   0.0000   0.0000   0.4662
   6.000   0.9473   0.12421   0.10961  -0.2069  0.6072  1.0000  -1.0886   0.0000   0.0000   0.0000   0.4595
   6.500   0.9709   0.13029   0.11537  -0.2078  0.5953  1.0000  -1.1057   0.0000   0.0000   0.0000   0.4542
   7.000   0.9797   0.13638   0.12143  -0.2080  0.5852  1.0000  -1.1057   0.0000   0.0000   0.0000   0.4518
   7.500   0.9944   0.14304   0.12797  -0.2093  0.5821  1.0000  -1.1145   0.0000   0.0000   0.0000   0.4491
   8.000   1.0166   0.14942   0.13421  -0.2104  0.5748  1.0000  -1.1330   0.0000   0.0000   0.0000   0.4448
   8.500   1.0504   0.15577   0.14036  -0.2112  0.5605  1.0000  -1.1724   0.0000   0.0000   0.0000   0.4380
   9.000   1.0541   0.16186   0.14650  -0.2120  0.5551  1.0000  -1.1711   0.0000   0.0000   0.0000   0.4372
   9.500   1.0645   0.16838   0.15308  -0.2133  0.5519  1.0000  -1.1755   0.0000   0.0000   0.0000   0.4357
  10.000   1.0855   0.17429   0.15901  -0.2141  0.5377  1.0000  -1.2053   0.0000   0.0000   0.0000   0.4316


