xflr5 v6.62

 Calculated polar for: S1223

 1 1 Reynolds number fixed          Mach number fixed         

 xtrf =   1.000 (top)        1.000 (bottom)
 Mach =   0.000     Re =     0.008 e 6     Ncrit =   5.000

  alpha     CL        CD       CDp       Cm    Top Xtr Bot Xtr   Cpmin    Chinge    XCp    
 ------- -------- --------- --------- -------- ------- ------- -------- --------- ---------
  -5.000  -0.1223   0.12834   0.11487   0.0029  1.0000  0.7170  -0.9103   0.0000   0.0000   0.0000   0.2518
  -4.000  -0.2325   0.13923   0.12676   0.0030  1.0000  0.3940  -1.1018   0.0000   0.0000   0.0000   0.2521
  -3.500  -0.2453   0.13730   0.12512   0.0016  1.0000  0.3424  -1.1512   0.0000   0.0000   0.0000   0.2469
  -3.000  -0.2597   0.13642   0.12449  -0.0006  1.0000  0.3100  -1.2063   0.0000   0.0000   0.0000   0.2388
  -2.500  -0.2646   0.13313   0.12148  -0.0004  1.0000  0.2975  -1.2268   0.0000   0.0000   0.0000   0.2403
  -2.000  -0.2697   0.13087   0.11946  -0.0031  1.0000  0.2855  -1.2641   0.0000   0.0000   0.0000   0.2307
  -1.500  -0.2650   0.12896   0.11759  -0.0091  1.0000  0.2744  -1.3040   0.0000   0.0000   0.0000   0.2076
  -1.000  -0.2572   0.12529   0.11390  -0.0115  1.0000  0.2725  -1.3101   0.0000   0.0000   0.0000   0.1974
  -0.500  -0.2427   0.12170   0.11040  -0.0158  1.0000  0.2714  -1.3150   0.0000   0.0000   0.0000   0.1769
   0.000  -0.2198   0.11801   0.10674  -0.0219  1.0000  0.2705  -1.3135   0.0000   0.0000   0.0000   0.1419
   0.500  -0.1870   0.11425   0.10295  -0.0299  1.0000  0.2687  -1.3030   0.0000   0.0000   0.0000   0.0810
   1.000  -0.1421   0.11057   0.09916  -0.0402  1.0000  0.2650  -1.2816   0.0000   0.0000   0.0000  -0.0440
   1.500  -0.0391   0.10806   0.09622  -0.0633  0.9819  0.2637  -1.2182   0.0000   0.0000   0.0000  -1.4000
   2.000   0.0885   0.10675   0.09433  -0.0919  0.9637  0.2785  -1.1291   0.0000   0.0000   0.0000   1.2963
   2.500   0.1900   0.10672   0.09381  -0.1095  0.9380  0.3240  -1.0410   0.0000   0.0000   0.0000   0.8268
   3.000   0.3016   0.10773   0.09434  -0.1282  0.9128  0.3875  -1.0278   0.0000   0.0000   0.0000   0.6731
   3.500   0.3849   0.10937   0.09580  -0.1395  0.9029  0.5096  -1.0345   0.0000   0.0000   0.0000   0.6088
   4.000   0.4277   0.10938   0.09604  -0.1405  0.8959  0.6899  -1.0470   0.0000   0.0000   0.0000   0.5736
   4.500   0.4922   0.10900   0.09538  -0.1500  0.8801  1.0000  -1.0119   0.0000   0.0000   0.0000   0.5490
   5.000   0.6382   0.12069   0.10440  -0.1800  0.8534  1.0000  -0.8122   0.0000   0.0000   0.0000   0.5253
   5.500   0.6876   0.12753   0.10998  -0.1876  0.8512  1.0000  -0.8344   0.0000   0.0000   0.0000   0.5152
   6.000   0.7257   0.13374   0.11532  -0.1922  0.8480  1.0000  -0.8516   0.0000   0.0000   0.0000   0.5064
   6.500   0.7767   0.14118   0.12186  -0.1977  0.8324  1.0000  -0.8887   0.0000   0.0000   0.0000   0.4952
   7.000   0.8000   0.14591   0.12617  -0.1992  0.8230  1.0000  -0.8997   0.0000   0.0000   0.0000   0.4888
   7.500   0.8274   0.15260   0.13247  -0.2021  0.8286  1.0000  -0.9161   0.0000   0.0000   0.0000   0.4832
   8.000   0.8542   0.15926   0.13883  -0.2048  0.8311  1.0000  -0.9355   0.0000   0.0000   0.0000   0.4778
   8.500   0.8746   0.16396   0.14346  -0.2060  0.8221  1.0000  -0.9484   0.0000   0.0000   0.0000   0.4727
   9.000   0.8972   0.17014   0.14945  -0.2081  0.8231  1.0000  -0.9639   0.0000   0.0000   0.0000   0.4682
   9.500   0.9033   0.17647   0.15578  -0.2097  0.8662  1.0000  -0.9641   0.0000   0.0000   0.0000   0.4674
  10.000   0.8721   0.18197   0.16132  -0.2048  0.9911  1.0000  -0.9316   0.0000   0.0000   0.0000   0.4690


