xflr5 v6.62

 Calculated polar for: S1223

 1 1 Reynolds number fixed          Mach number fixed         

 xtrf =   1.000 (top)        1.000 (bottom)
 Mach =   0.000     Re =     0.010 e 6     Ncrit =   5.000

  alpha     CL        CD       CDp       Cm    Top Xtr Bot Xtr   Cpmin    Chinge    XCp    
 ------- -------- --------- --------- -------- ------- ------- -------- --------- ---------
  -5.000  -0.0430   0.11502   0.10278  -0.0046  1.0000  0.8908  -0.7949   0.0000   0.0000   0.0000   0.0844
  -4.500  -0.0667   0.11513   0.10342   0.0010  1.0000  0.8617  -0.8177   0.0000   0.0000   0.0000   0.2303
  -4.000  -0.1137   0.11883   0.10767   0.0096  1.0000  0.8157  -0.8561   0.0000   0.0000   0.0000   0.3153
  -3.500  -0.1698   0.12303   0.11246   0.0168  1.0000  0.7377  -0.9056   0.0000   0.0000   0.0000   0.3363
  -3.000  -0.2412   0.12933   0.11931   0.0191  1.0000  0.5680  -0.9923   0.0000   0.0000   0.0000   0.3201
  -2.500  -0.2766   0.13246   0.12239   0.0015  1.0000  0.2903  -1.1735   0.0000   0.0000   0.0000   0.2475
  -2.000  -0.2776   0.12950   0.11953  -0.0031  1.0000  0.2508  -1.2286   0.0000   0.0000   0.0000   0.2312
  -1.500  -0.2713   0.12632   0.11639  -0.0082  0.9995  0.2274  -1.2712   0.0000   0.0000   0.0000   0.2122
  -1.000  -0.2178   0.12175   0.11158  -0.0243  0.9783  0.2088  -1.2979   0.0000   0.0000   0.0000   0.1292
  -0.500  -0.1608   0.11735   0.10693  -0.0393  0.9554  0.1981  -1.3081   0.0000   0.0000   0.0000  -0.0060
   0.000  -0.0819   0.11293   0.10224  -0.0585  0.9270  0.2014  -1.2927   0.0000   0.0000   0.0000  -0.4851
   0.500  -0.0357   0.10935   0.09868  -0.0649  0.9053  0.2141  -1.2284   0.0000   0.0000   0.0000  -1.6105
   1.000   0.0360   0.10645   0.09556  -0.0798  0.8890  0.2239  -1.1753   0.0000   0.0000   0.0000   2.4994
   1.500   0.1590   0.10348   0.09202  -0.1057  0.8641  0.2282  -1.0959   0.0000   0.0000   0.0000   0.9191
   2.000   0.2903   0.10213   0.08995  -0.1306  0.8377  0.2517  -0.9983   0.0000   0.0000   0.0000   0.7000
   2.500   0.3968   0.10343   0.09071  -0.1494  0.8241  0.3105  -0.9825   0.0000   0.0000   0.0000   0.6250
   3.000   0.4803   0.10520   0.09231  -0.1607  0.8121  0.4146  -0.9848   0.0000   0.0000   0.0000   0.5817
   3.500   0.5306   0.10578   0.09305  -0.1614  0.7977  0.6050  -0.9875   0.0000   0.0000   0.0000   0.5502
   4.000   0.5559   0.10513   0.09256  -0.1581  0.7823  0.8043  -0.9634   0.0000   0.0000   0.0000   0.5294
   4.500   0.6612   0.11169   0.09773  -0.1791  0.7688  1.0000  -0.8517   0.0000   0.0000   0.0000   0.5149
   5.000   0.7235   0.11942   0.10416  -0.1905  0.7632  1.0000  -0.8810   0.0000   0.0000   0.0000   0.5065
   5.500   0.7738   0.12605   0.10979  -0.1969  0.7504  1.0000  -0.9082   0.0000   0.0000   0.0000   0.4967
   6.000   0.8166   0.13226   0.11519  -0.2007  0.7348  1.0000  -0.9375   0.0000   0.0000   0.0000   0.4872
   6.500   0.8409   0.13824   0.12074  -0.2029  0.7318  1.0000  -0.9497   0.0000   0.0000   0.0000   0.4819
   7.000   0.8644   0.14444   0.12660  -0.2050  0.7315  1.0000  -0.9597   0.0000   0.0000   0.0000   0.4770
   7.500   0.8898   0.15016   0.13203  -0.2066  0.7217  1.0000  -0.9803   0.0000   0.0000   0.0000   0.4712
   8.000   0.9323   0.15765   0.13923  -0.2096  0.7069  1.0000  -1.0201   0.0000   0.0000   0.0000   0.4629
   8.500   0.9447   0.16353   0.14507  -0.2110  0.7119  1.0000  -1.0215   0.0000   0.0000   0.0000   0.4607
   9.000   0.9545   0.16902   0.15051  -0.2123  0.7176  1.0000  -1.0260   0.0000   0.0000   0.0000   0.4588
   9.500   0.9837   0.17595   0.15729  -0.2142  0.7034  1.0000  -1.0560   0.0000   0.0000   0.0000   0.4532
  10.000   1.0011   0.18233   0.16367  -0.2160  0.7030  1.0000  -1.0689   0.0000   0.0000   0.0000   0.4503


