xflr5 v6.62

 Calculated polar for: S1223

 1 1 Reynolds number fixed          Mach number fixed         

 xtrf =   1.000 (top)        1.000 (bottom)
 Mach =   0.000     Re =     0.012 e 6     Ncrit =   5.000

  alpha     CL        CD       CDp       Cm    Top Xtr Bot Xtr   Cpmin    Chinge    XCp    
 ------- -------- --------- --------- -------- ------- ------- -------- --------- ---------
  -5.000  -0.1786   0.13340   0.12299   0.0043  1.0000  0.5215  -0.8836   0.0000   0.0000   0.0000   0.2590
  -4.500  -0.1974   0.13262   0.12269   0.0099  1.0000  0.5552  -0.8969   0.0000   0.0000   0.0000   0.2874
  -4.000  -0.2088   0.13063   0.12110   0.0153  1.0000  0.6005  -0.9005   0.0000   0.0000   0.0000   0.3117
  -3.500  -0.1984   0.12515   0.11579   0.0179  1.0000  0.6571  -0.8862   0.0000   0.0000   0.0000   0.3291
  -3.000  -0.1973   0.12181   0.11274   0.0208  1.0000  0.7083  -0.8840   0.0000   0.0000   0.0000   0.3452
  -2.500  -0.1936   0.12048   0.11160   0.0185  0.9884  0.7047  -0.8952   0.0000   0.0000   0.0000   0.3350
  -2.000  -0.2230   0.12639   0.11759   0.0121  0.9537  0.5926  -0.9618   0.0000   0.0000   0.0000   0.2944
  -1.500  -0.1597   0.12068   0.11106  -0.0347  0.9233  0.1948  -1.2145   0.0000   0.0000   0.0000   0.0200
  -1.000  -0.1195   0.11549   0.10584  -0.0442  0.8973  0.1818  -1.2283   0.0000   0.0000   0.0000  -0.1358
  -0.500  -0.0433   0.11002   0.10000  -0.0656  0.8693  0.1686  -1.2755   0.0000   0.0000   0.0000  -1.3065
   0.000   0.0116   0.10560   0.09546  -0.0761  0.8501  0.1656  -1.2520   0.0000   0.0000   0.0000   6.9123
   0.500   0.1081   0.10127   0.09085  -0.0966  0.8305  0.1731  -1.2035   0.0000   0.0000   0.0000   1.1543
   1.000   0.1950   0.09869   0.08799  -0.1111  0.8063  0.1940  -1.0991   0.0000   0.0000   0.0000   0.8239
   1.500   0.3386   0.09604   0.08453  -0.1404  0.7825  0.2065  -1.0081   0.0000   0.0000   0.0000   0.6647
   2.000   0.4516   0.09663   0.08458  -0.1592  0.7694  0.2482  -0.9558   0.0000   0.0000   0.0000   0.6011
   2.500   0.5386   0.09854   0.08614  -0.1721  0.7542  0.3277  -0.9558   0.0000   0.0000   0.0000   0.5671
   3.000   0.6053   0.09939   0.08709  -0.1746  0.7378  0.5288  -0.9516   0.0000   0.0000   0.0000   0.5350
   3.500   0.6261   0.10042   0.08823  -0.1712  0.7227  0.6938  -0.9182   0.0000   0.0000   0.0000   0.5189
   4.000   0.6544   0.10169   0.08949  -0.1707  0.7149  0.8635  -0.8839   0.0000   0.0000   0.0000   0.5055
   4.500   0.7554   0.11006   0.09638  -0.1902  0.7057  1.0000  -0.9344   0.0000   0.0000   0.0000   0.4956
   5.000   0.7949   0.11658   0.10210  -0.1965  0.6922  1.0000  -0.9502   0.0000   0.0000   0.0000   0.4902
   5.500   0.8591   0.12326   0.10775  -0.2028  0.6760  1.0000  -0.9968   0.0000   0.0000   0.0000   0.4782
   6.000   0.8868   0.12989   0.11387  -0.2054  0.6716  1.0000  -1.0130   0.0000   0.0000   0.0000   0.4729
   6.500   0.9013   0.13600   0.11972  -0.2065  0.6684  1.0000  -1.0155   0.0000   0.0000   0.0000   0.4697
   7.000   0.9165   0.14132   0.12483  -0.2070  0.6572  1.0000  -1.0209   0.0000   0.0000   0.0000   0.4656
   7.500   0.9503   0.14757   0.13087  -0.2088  0.6446  1.0000  -1.0542   0.0000   0.0000   0.0000   0.4586
   8.000   0.9669   0.15411   0.13728  -0.2104  0.6447  1.0000  -1.0627   0.0000   0.0000   0.0000   0.4556
   8.500   0.9922   0.16113   0.14417  -0.2123  0.6412  1.0000  -1.0820   0.0000   0.0000   0.0000   0.4511
   9.000   1.0044   0.16621   0.14917  -0.2125  0.6284  1.0000  -1.0947   0.0000   0.0000   0.0000   0.4479
   9.500   1.0190   0.17226   0.15522  -0.2138  0.6242  1.0000  -1.1055   0.0000   0.0000   0.0000   0.4453
  10.000   1.0353   0.17938   0.16238  -0.2160  0.6281  1.0000  -1.1184   0.0000   0.0000   0.0000   0.4432


