xflr5 v6.62

 Calculated polar for: AG36

 1 1 Reynolds number fixed          Mach number fixed         

 xtrf =   1.000 (top)        1.000 (bottom)
 Mach =   0.000     Re =     0.024 e 6     Ncrit =   5.000

  alpha     CL        CD       CDp       Cm    Top Xtr Bot Xtr   Cpmin    Chinge    XCp    
 ------- -------- --------- --------- -------- ------- ------- -------- --------- ---------
  -2.000   0.0433   0.02292   0.00866  -0.0276  1.0000  1.0000  -0.7794   0.0000   0.0000   0.0000   0.9011
  -1.500   0.0828   0.02353   0.00881  -0.0265  1.0000  1.0000  -0.5885   0.0000   0.0000   0.0000   0.5749
  -1.000   0.1207   0.02440   0.00935  -0.0256  1.0000  1.0000  -0.4225   0.0000   0.0000   0.0000   0.4647
  -0.500   0.1566   0.02559   0.01029  -0.0252  1.0000  1.0000  -0.4519   0.0000   0.0000   0.0000   0.4119
   0.000   0.2484   0.02724   0.01177  -0.0351  0.9608  1.0000  -0.5291   0.0000   0.0000   0.0000   0.3913
   0.500   0.3381   0.02867   0.01318  -0.0436  0.9135  1.0000  -0.6177   0.0000   0.0000   0.0000   0.3783
   1.000   0.4259   0.02987   0.01452  -0.0506  0.8677  1.0000  -0.7188   0.0000   0.0000   0.0000   0.3675
   1.500   0.5034   0.03090   0.01580  -0.0547  0.8222  1.0000  -0.8280   0.0000   0.0000   0.0000   0.3567
   2.000   0.5713   0.03188   0.01708  -0.0562  0.7765  1.0000  -0.9423   0.0000   0.0000   0.0000   0.3459
   2.500   0.6309   0.03287   0.01838  -0.0558  0.7291  1.0000  -1.0676   0.0000   0.0000   0.0000   0.3353
   3.000   0.6837   0.03391   0.01979  -0.0539  0.6795  1.0000  -1.2087   0.0000   0.0000   0.0000   0.3252
   3.500   0.7362   0.03472   0.02098  -0.0511  0.6290  1.0000  -1.4199   0.0000   0.0000   0.0000   0.3152
   4.000   0.7863   0.03567   0.02223  -0.0476  0.5759  1.0000  -1.7113   0.0000   0.0000   0.0000   0.3057
   4.500   0.8306   0.03716   0.02408  -0.0438  0.5186  1.0000  -2.0397   0.0000   0.0000   0.0000   0.2973
   5.000   0.8713   0.03889   0.02618  -0.0399  0.4587  1.0000  -2.3912   0.0000   0.0000   0.0000   0.2898
   5.500   0.9102   0.04069   0.02837  -0.0361  0.3974  1.0000  -2.7461   0.0000   0.0000   0.0000   0.2829
   6.000   0.9471   0.04276   0.03070  -0.0322  0.3362  1.0000  -3.1090   0.0000   0.0000   0.0000   0.2765
   6.500   0.9813   0.04529   0.03334  -0.0282  0.2762  1.0000  -3.4761   0.0000   0.0000   0.0000   0.2705
   7.000   1.0065   0.04920   0.03747  -0.0248  0.2208  1.0000  -3.7648   0.0000   0.0000   0.0000   0.2657
   7.500   1.0299   0.05371   0.04201  -0.0216  0.1757  1.0000  -4.0233   0.0000   0.0000   0.0000   0.2613
   8.000   1.0396   0.06043   0.04931  -0.0193  0.1454  1.0000  -4.1415   0.0000   0.0000   0.0000   0.2583
   8.500   1.0452   0.06756   0.05680  -0.0174  0.1256  1.0000  -4.2340   0.0000   0.0000   0.0000   0.2558
   9.000   1.0344   0.07612   0.06581  -0.0165  0.1148  1.0000  -4.2185   0.0000   0.0000   0.0000   0.2545
   9.500   0.9931   0.08881   0.07896  -0.0200  0.1140  1.0000  -3.9783   0.0000   0.0000   0.0000   0.2584
  10.000   0.9512   0.10483   0.09510  -0.0285  0.1146  1.0000  -3.6605   0.0000   0.0000   0.0000   0.2681
  10.500   0.9175   0.12227   0.11236  -0.0384  0.1147  1.0000  -3.3154   0.0000   0.0000   0.0000   0.2800
  11.000   0.8963   0.13736   0.12727  -0.0464  0.1132  1.0000  -3.0419   0.0000   0.0000   0.0000   0.2900
  11.500   0.8865   0.14965   0.13945  -0.0526  0.1096  1.0000  -2.8612   0.0000   0.0000   0.0000   0.2973
  12.000   0.8927   0.15887   0.14866  -0.0555  0.1034  1.0000  -2.8292   0.0000   0.0000   0.0000   0.2998
  12.500   0.8907   0.17006   0.15976  -0.0615  0.1020  1.0000  -2.6783   0.0000   0.0000   0.0000   0.3063
  13.000   0.8930   0.18009   0.16973  -0.0669  0.0997  1.0000  -2.5712   0.0000   0.0000   0.0000   0.3118
  13.500   0.8998   0.18937   0.17899  -0.0716  0.0979  1.0000  -2.4959   0.0000   0.0000   0.0000   0.3162
  14.000   0.9078   0.19838   0.18800  -0.0765  0.0987  1.0000  -2.4169   0.0000   0.0000   0.0000   0.3204


