xflr5 v6.62

 Calculated polar for: AG36

 1 1 Reynolds number fixed          Mach number fixed         

 xtrf =   1.000 (top)        1.000 (bottom)
 Mach =   0.000     Re =     0.024 e 6     Ncrit =   9.000

  alpha     CL        CD       CDp       Cm    Top Xtr Bot Xtr   Cpmin    Chinge    XCp    
 ------- -------- --------- --------- -------- ------- ------- -------- --------- ---------
  -2.000   0.0433   0.02292   0.00866  -0.0276  1.0000  1.0000  -0.7794   0.0000   0.0000   0.0000   0.9011
  -1.500   0.0828   0.02353   0.00881  -0.0265  1.0000  1.0000  -0.5885   0.0000   0.0000   0.0000   0.5749
  -1.000   0.1207   0.02440   0.00935  -0.0256  1.0000  1.0000  -0.4225   0.0000   0.0000   0.0000   0.4647
  -0.500   0.1566   0.02559   0.01029  -0.0252  1.0000  1.0000  -0.4519   0.0000   0.0000   0.0000   0.4119
   0.000   0.1905   0.02714   0.01168  -0.0252  1.0000  1.0000  -0.4870   0.0000   0.0000   0.0000   0.3825
   0.500   0.2230   0.02902   0.01346  -0.0257  1.0000  1.0000  -0.5233   0.0000   0.0000   0.0000   0.3647
   1.000   0.2547   0.03121   0.01561  -0.0266  1.0000  1.0000  -0.5622   0.0000   0.0000   0.0000   0.3533
   1.500   0.2855   0.03372   0.01815  -0.0279  1.0000  1.0000  -0.6025   0.0000   0.0000   0.0000   0.3459
   2.000   0.3150   0.03658   0.02109  -0.0295  1.0000  1.0000  -0.6434   0.0000   0.0000   0.0000   0.3412
   2.500   0.3428   0.03985   0.02449  -0.0314  1.0000  1.0000  -0.6838   0.0000   0.0000   0.0000   0.3387
   3.000   0.4525   0.04588   0.03100  -0.0492  0.9452  1.0000  -0.8099   0.0000   0.0000   0.0000   0.3555
   3.500   0.5484   0.05124   0.03697  -0.0617  0.8730  1.0000  -0.9461   0.0000   0.0000   0.0000   0.3588
   4.000   0.6263   0.05623   0.04259  -0.0687  0.8017  1.0000  -1.0891   0.0000   0.0000   0.0000   0.3555
   4.500   0.6869   0.06110   0.04803  -0.0714  0.7329  1.0000  -1.2641   0.0000   0.0000   0.0000   0.3494
   5.000   0.7366   0.06613   0.05365  -0.0716  0.6681  1.0000  -1.4769   0.0000   0.0000   0.0000   0.3423
   5.500   0.7749   0.07169   0.05967  -0.0704  0.6091  1.0000  -1.6909   0.0000   0.0000   0.0000   0.3355
   6.000   0.8025   0.07819   0.06661  -0.0688  0.5585  1.0000  -1.8689   0.0000   0.0000   0.0000   0.3300
   6.500   0.8147   0.08583   0.07450  -0.0676  0.5192  1.0000  -1.9844   0.0000   0.0000   0.0000   0.3269
   8.000   0.7873   0.11616   0.10503  -0.0754  0.5210  1.0000  -1.8942   0.0000   0.0000   0.0000   0.3387
   8.500   0.6976   0.12487   0.11333  -0.0857  0.7519  1.0000  -1.5134   0.0000   0.0000   0.0000   0.3651
   9.000   0.7179   0.13320   0.12191  -0.0863  0.6973  1.0000  -1.5982   0.0000   0.0000   0.0000   0.3622
   9.500   0.7407   0.14206   0.13101  -0.0870  0.6436  1.0000  -1.6741   0.0000   0.0000   0.0000   0.3591
  10.000   0.7591   0.15069   0.13982  -0.0873  0.5961  1.0000  -1.7222   0.0000   0.0000   0.0000   0.3563
  10.500   0.7758   0.15922   0.14849  -0.0877  0.5557  1.0000  -1.7564   0.0000   0.0000   0.0000   0.3541
  11.000   0.7965   0.16879   0.15823  -0.0888  0.5198  1.0000  -1.7941   0.0000   0.0000   0.0000   0.3520
  11.500   0.8078   0.17591   0.16542  -0.0893  0.4865  1.0000  -1.8010   0.0000   0.0000   0.0000   0.3507
  12.000   0.8277   0.18513   0.17472  -0.0905  0.4557  1.0000  -1.8166   0.0000   0.0000   0.0000   0.3490
  12.500   0.8415   0.19266   0.18229  -0.0918  0.4302  1.0000  -1.8115   0.0000   0.0000   0.0000   0.3483
  13.000   0.8558   0.19991   0.18957  -0.0933  0.4042  1.0000  -1.8034   0.0000   0.0000   0.0000   0.3477
  13.500   0.8775   0.20943   0.19918  -0.0951  0.3809  1.0000  -1.8048   0.0000   0.0000   0.0000   0.3465
  14.000   0.8865   0.21432   0.20407  -0.0972  0.3591  1.0000  -1.7988   0.0000   0.0000   0.0000   0.3472


