xflr5 v6.62

 Calculated polar for: AG36

 1 1 Reynolds number fixed          Mach number fixed         

 xtrf =   1.000 (top)        1.000 (bottom)
 Mach =   0.000     Re =     0.040 e 6     Ncrit =   9.000

  alpha     CL        CD       CDp       Cm    Top Xtr Bot Xtr   Cpmin    Chinge    XCp    
 ------- -------- --------- --------- -------- ------- ------- -------- --------- ---------
  -2.000   0.0451   0.01836   0.00747  -0.0278  1.0000  1.0000  -0.8003   0.0000   0.0000   0.0000   0.8772
  -1.500   0.0849   0.01909   0.00783  -0.0269  1.0000  1.0000  -0.5993   0.0000   0.0000   0.0000   0.5722
  -1.000   0.1223   0.02017   0.00866  -0.0266  1.0000  1.0000  -0.4295   0.0000   0.0000   0.0000   0.4700
  -0.500   0.1570   0.02168   0.00998  -0.0269  1.0000  1.0000  -0.4484   0.0000   0.0000   0.0000   0.4224
   0.000   0.1905   0.02352   0.01170  -0.0277  1.0000  1.0000  -0.4818   0.0000   0.0000   0.0000   0.3956
   0.500   0.2704   0.02593   0.01405  -0.0372  0.9771  1.0000  -0.5535   0.0000   0.0000   0.0000   0.3869
   1.000   0.3861   0.02817   0.01640  -0.0515  0.9275  1.0000  -0.6693   0.0000   0.0000   0.0000   0.3820
   1.500   0.4882   0.02971   0.01822  -0.0613  0.8765  1.0000  -0.7939   0.0000   0.0000   0.0000   0.3736
   2.000   0.5829   0.03064   0.01953  -0.0674  0.8250  1.0000  -0.9341   0.0000   0.0000   0.0000   0.3633
   2.500   0.6588   0.03123   0.02046  -0.0684  0.7721  1.0000  -1.0839   0.0000   0.0000   0.0000   0.3509
   3.000   0.7218   0.03160   0.02119  -0.0659  0.7173  1.0000  -1.2512   0.0000   0.0000   0.0000   0.3378
   3.500   0.7755   0.03190   0.02182  -0.0614  0.6598  1.0000  -1.5048   0.0000   0.0000   0.0000   0.3251
   4.000   0.8281   0.03198   0.02208  -0.0557  0.5997  1.0000  -1.8509   0.0000   0.0000   0.0000   0.3127
   4.500   0.8739   0.03312   0.02338  -0.0503  0.5332  1.0000  -2.2199   0.0000   0.0000   0.0000   0.3022
   5.000   0.9156   0.03482   0.02527  -0.0453  0.4627  1.0000  -2.5846   0.0000   0.0000   0.0000   0.2935
   5.500   0.9597   0.03587   0.02637  -0.0401  0.3918  1.0000  -2.9951   0.0000   0.0000   0.0000   0.2852
   6.000   1.0017   0.03738   0.02773  -0.0352  0.3172  1.0000  -3.4059   0.0000   0.0000   0.0000   0.2777
   6.500   1.0358   0.04071   0.03104  -0.0307  0.2439  1.0000  -3.7194   0.0000   0.0000   0.0000   0.2714
   7.000   1.0679   0.04553   0.03579  -0.0268  0.1861  1.0000  -3.9514   0.0000   0.0000   0.0000   0.2661
   7.500   1.0878   0.05291   0.04383  -0.0235  0.1558  1.0000  -4.0283   0.0000   0.0000   0.0000   0.2621
   8.000   1.1049   0.06102   0.05238  -0.0209  0.1383  1.0000  -4.0986   0.0000   0.0000   0.0000   0.2588
   8.500   1.0779   0.07235   0.06464  -0.0190  0.1372  1.0000  -3.9326   0.0000   0.0000   0.0000   0.2573
   9.000   1.0408   0.08397   0.07663  -0.0192  0.1386  1.0000  -3.7518   0.0000   0.0000   0.0000   0.2578
  10.000   0.8128   0.14704   0.13899  -0.0749  0.3647  1.0000  -1.9534   0.0000   0.0000   0.0000   0.3336
  10.500   0.8261   0.15615   0.14816  -0.0754  0.3407  1.0000  -1.9654   0.0000   0.0000   0.0000   0.3324
  11.000   0.8420   0.16531   0.15738  -0.0759  0.3157  1.0000  -1.9782   0.0000   0.0000   0.0000   0.3308
  11.500   0.8376   0.17150   0.16353  -0.0781  0.2995  1.0000  -1.9221   0.0000   0.0000   0.0000   0.3334
  12.000   0.8644   0.18221   0.17432  -0.0786  0.2772  1.0000  -1.9513   0.0000   0.0000   0.0000   0.3306
  13.000   0.6713   0.17879   0.17134  -0.0553  0.2642  1.0000  -1.4918   0.0000   0.0000   0.0000   0.3230
  13.500   0.6688   0.18311   0.17570  -0.0561  0.2509  1.0000  -1.4432   0.0000   0.0000   0.0000   0.3243
  14.000   0.6666   0.18719   0.17980  -0.0572  0.2372  1.0000  -1.3987   0.0000   0.0000   0.0000   0.3258


