xflr5 v6.62

 Calculated polar for: AG36

 1 1 Reynolds number fixed          Mach number fixed         

 xtrf =   1.000 (top)        1.000 (bottom)
 Mach =   0.000     Re =     0.040 e 6     Ncrit =   5.000

  alpha     CL        CD       CDp       Cm    Top Xtr Bot Xtr   Cpmin    Chinge    XCp    
 ------- -------- --------- --------- -------- ------- ------- -------- --------- ---------
  -2.000   0.0451   0.01836   0.00747  -0.0278  1.0000  1.0000  -0.8003   0.0000   0.0000   0.0000   0.8772
  -1.500   0.1199   0.01904   0.00769  -0.0333  0.9782  1.0000  -0.5253   0.0000   0.0000   0.0000   0.5309
  -1.000   0.2125   0.01961   0.00794  -0.0415  0.9407  1.0000  -0.4756   0.0000   0.0000   0.0000   0.4466
  -0.500   0.3001   0.02000   0.00817  -0.0480  0.9008  1.0000  -0.5534   0.0000   0.0000   0.0000   0.4103
   0.000   0.3781   0.02024   0.00833  -0.0518  0.8589  1.0000  -0.6375   0.0000   0.0000   0.0000   0.3867
   0.500   0.4450   0.02053   0.00859  -0.0531  0.8153  1.0000  -0.7252   0.0000   0.0000   0.0000   0.3683
   1.000   0.5036   0.02094   0.00899  -0.0526  0.7711  1.0000  -0.8162   0.0000   0.0000   0.0000   0.3529
   1.500   0.5577   0.02142   0.00947  -0.0512  0.7278  1.0000  -0.9150   0.0000   0.0000   0.0000   0.3397
   2.000   0.6079   0.02201   0.01014  -0.0494  0.6822  1.0000  -1.0230   0.0000   0.0000   0.0000   0.3285
   2.500   0.6582   0.02253   0.01074  -0.0472  0.6379  1.0000  -1.1514   0.0000   0.0000   0.0000   0.3183
   3.000   0.7075   0.02324   0.01148  -0.0449  0.5919  1.0000  -1.3113   0.0000   0.0000   0.0000   0.3095
   3.500   0.7557   0.02420   0.01256  -0.0427  0.5429  1.0000  -1.5654   0.0000   0.0000   0.0000   0.3019
   4.000   0.8026   0.02527   0.01382  -0.0406  0.4905  1.0000  -1.8949   0.0000   0.0000   0.0000   0.2954
   4.500   0.8474   0.02633   0.01514  -0.0383  0.4342  1.0000  -2.2670   0.0000   0.0000   0.0000   0.2893
   5.000   0.8901   0.02749   0.01647  -0.0358  0.3742  1.0000  -2.6568   0.0000   0.0000   0.0000   0.2836
   5.500   0.9306   0.02905   0.01811  -0.0333  0.3127  1.0000  -3.0685   0.0000   0.0000   0.0000   0.2785
   6.000   0.9674   0.03117   0.02022  -0.0308  0.2514  1.0000  -3.4827   0.0000   0.0000   0.0000   0.2737
   6.500   0.9993   0.03395   0.02311  -0.0282  0.1918  1.0000  -3.8627   0.0000   0.0000   0.0000   0.2695
   7.000   1.0255   0.03745   0.02658  -0.0256  0.1408  1.0000  -4.1947   0.0000   0.0000   0.0000   0.2654
   7.500   1.0480   0.04165   0.03083  -0.0229  0.1042  1.0000  -4.4756   0.0000   0.0000   0.0000   0.2615
   8.000   1.0704   0.04646   0.03587  -0.0202  0.0815  1.0000  -4.7122   0.0000   0.0000   0.0000   0.2579
   8.500   1.0896   0.05220   0.04223  -0.0177  0.0678  1.0000  -4.9076   0.0000   0.0000   0.0000   0.2545
   9.000   1.1005   0.05818   0.04861  -0.0153  0.0596  1.0000  -5.0999   0.0000   0.0000   0.0000   0.2515
   9.500   1.0862   0.06623   0.05747  -0.0129  0.0562  1.0000  -5.0651   0.0000   0.0000   0.0000   0.2489
  10.000   1.0584   0.07603   0.06783  -0.0141  0.0549  1.0000  -4.9494   0.0000   0.0000   0.0000   0.2498
  10.500   1.0141   0.09032   0.08258  -0.0213  0.0558  1.0000  -4.6493   0.0000   0.0000   0.0000   0.2571
  11.000   0.9647   0.10944   0.10192  -0.0331  0.0578  1.0000  -4.1831   0.0000   0.0000   0.0000   0.2703
  11.500   0.9296   0.12865   0.12107  -0.0436  0.0589  1.0000  -3.7186   0.0000   0.0000   0.0000   0.2832
  12.000   0.9102   0.14526   0.13754  -0.0520  0.0589  1.0000  -3.3480   0.0000   0.0000   0.0000   0.2935
  12.500   0.9026   0.15878   0.15096  -0.0587  0.0585  1.0000  -3.0964   0.0000   0.0000   0.0000   0.3014
  13.000   0.9013   0.17073   0.16283  -0.0648  0.0577  1.0000  -2.9042   0.0000   0.0000   0.0000   0.3081
  13.500   0.9047   0.18141   0.17345  -0.0704  0.0563  1.0000  -2.7603   0.0000   0.0000   0.0000   0.3137
  14.000   0.9117   0.19123   0.18325  -0.0756  0.0555  1.0000  -2.6478   0.0000   0.0000   0.0000   0.3184


