xflr5 v6.62

 Calculated polar for: AG36

 1 1 Reynolds number fixed          Mach number fixed         

 xtrf =   1.000 (top)        1.000 (bottom)
 Mach =   0.000     Re =     0.050 e 6     Ncrit =   5.000

  alpha     CL        CD       CDp       Cm    Top Xtr Bot Xtr   Cpmin    Chinge    XCp    
 ------- -------- --------- --------- -------- ------- ------- -------- --------- ---------
  -2.000   0.0818   0.01667   0.00686  -0.0345  0.9787  1.0000  -0.7183   0.0000   0.0000   0.0000   0.6783
  -1.500   0.1732   0.01701   0.00679  -0.0422  0.9471  1.0000  -0.4380   0.0000   0.0000   0.0000   0.4963
  -1.000   0.2567   0.01721   0.00674  -0.0478  0.9099  1.0000  -0.5061   0.0000   0.0000   0.0000   0.4373
  -0.500   0.3308   0.01731   0.00669  -0.0509  0.8677  1.0000  -0.5796   0.0000   0.0000   0.0000   0.4040
   0.000   0.3966   0.01746   0.00670  -0.0519  0.8235  1.0000  -0.6581   0.0000   0.0000   0.0000   0.3804
   0.500   0.4551   0.01772   0.00685  -0.0514  0.7795  1.0000  -0.7410   0.0000   0.0000   0.0000   0.3617
   1.000   0.5078   0.01814   0.00720  -0.0500  0.7339  1.0000  -0.8286   0.0000   0.0000   0.0000   0.3467
   1.500   0.5591   0.01860   0.00761  -0.0483  0.6898  1.0000  -0.9258   0.0000   0.0000   0.0000   0.3342
   2.000   0.6093   0.01908   0.00810  -0.0465  0.6453  1.0000  -1.0359   0.0000   0.0000   0.0000   0.3235
   2.500   0.6599   0.01967   0.00864  -0.0447  0.6027  1.0000  -1.1679   0.0000   0.0000   0.0000   0.3143
   3.000   0.7102   0.02049   0.00947  -0.0432  0.5572  1.0000  -1.3356   0.0000   0.0000   0.0000   0.3067
   3.500   0.7594   0.02138   0.01049  -0.0416  0.5096  1.0000  -1.6041   0.0000   0.0000   0.0000   0.3001
   4.000   0.8067   0.02227   0.01157  -0.0399  0.4578  1.0000  -1.9448   0.0000   0.0000   0.0000   0.2941
   4.500   0.8524   0.02318   0.01268  -0.0380  0.4011  1.0000  -2.3355   0.0000   0.0000   0.0000   0.2886
   5.000   0.8962   0.02434   0.01391  -0.0360  0.3412  1.0000  -2.7383   0.0000   0.0000   0.0000   0.2834
   5.500   0.9376   0.02597   0.01557  -0.0340  0.2792  1.0000  -3.1759   0.0000   0.0000   0.0000   0.2788
   6.000   0.9756   0.02806   0.01772  -0.0319  0.2180  1.0000  -3.6058   0.0000   0.0000   0.0000   0.2745
   6.500   1.0088   0.03071   0.02033  -0.0297  0.1608  1.0000  -4.0083   0.0000   0.0000   0.0000   0.2705
   7.000   1.0368   0.03408   0.02370  -0.0273  0.1120  1.0000  -4.3581   0.0000   0.0000   0.0000   0.2667
   7.500   1.0605   0.03806   0.02771  -0.0246  0.0812  1.0000  -4.6534   0.0000   0.0000   0.0000   0.2627
   8.000   1.0844   0.04245   0.03246  -0.0217  0.0630  1.0000  -4.9141   0.0000   0.0000   0.0000   0.2589
   8.500   1.1054   0.04729   0.03767  -0.0190  0.0525  1.0000  -5.1896   0.0000   0.0000   0.0000   0.2553
   9.000   1.1195   0.05321   0.04420  -0.0162  0.0463  1.0000  -5.3780   0.0000   0.0000   0.0000   0.2519
   9.500   1.1200   0.05899   0.05038  -0.0133  0.0424  1.0000  -5.5380   0.0000   0.0000   0.0000   0.2486
  10.000   1.1078   0.06668   0.05854  -0.0119  0.0409  1.0000  -5.5605   0.0000   0.0000   0.0000   0.2468
  10.500   1.0765   0.07701   0.06947  -0.0144  0.0405  1.0000  -5.4106   0.0000   0.0000   0.0000   0.2487
  11.000   1.0389   0.09028   0.08316  -0.0213  0.0407  1.0000  -5.1729   0.0000   0.0000   0.0000   0.2553
  11.500   1.0002   0.10625   0.09939  -0.0308  0.0413  1.0000  -4.8474   0.0000   0.0000   0.0000   0.2653
  12.500   0.9074   0.15505   0.14810  -0.0588  0.0459  1.0000  -3.2702   0.0000   0.0000   0.0000   0.3009
  13.000   0.9050   0.16741   0.16038  -0.0649  0.0454  1.0000  -3.0539   0.0000   0.0000   0.0000   0.3076
  13.500   0.9079   0.17854   0.17146  -0.0704  0.0451  1.0000  -2.8871   0.0000   0.0000   0.0000   0.3132
  14.000   0.9152   0.18824   0.18113  -0.0753  0.0439  1.0000  -2.7872   0.0000   0.0000   0.0000   0.3175


