xflr5 v6.62

 Calculated polar for: AG36

 1 1 Reynolds number fixed          Mach number fixed         

 xtrf =   1.000 (top)        1.000 (bottom)
 Mach =   0.000     Re =     0.032 e 6     Ncrit =   9.000

  alpha     CL        CD       CDp       Cm    Top Xtr Bot Xtr   Cpmin    Chinge    XCp    
 ------- -------- --------- --------- -------- ------- ------- -------- --------- ---------
  -2.000   0.0443   0.02019   0.00794  -0.0277  1.0000  1.0000  -0.7917   0.0000   0.0000   0.0000   0.8862
  -1.500   0.0840   0.02086   0.00821  -0.0267  1.0000  1.0000  -0.5949   0.0000   0.0000   0.0000   0.5726
  -1.000   0.1217   0.02183   0.00889  -0.0261  1.0000  1.0000  -0.4264   0.0000   0.0000   0.0000   0.4667
  -0.500   0.1569   0.02318   0.01003  -0.0260  1.0000  1.0000  -0.4503   0.0000   0.0000   0.0000   0.4168
   0.000   0.1905   0.02491   0.01161  -0.0265  1.0000  1.0000  -0.4844   0.0000   0.0000   0.0000   0.3891
   0.500   0.2234   0.02693   0.01354  -0.0274  1.0000  1.0000  -0.5203   0.0000   0.0000   0.0000   0.3720
   1.000   0.2557   0.02923   0.01582  -0.0286  1.0000  1.0000  -0.5591   0.0000   0.0000   0.0000   0.3608
   1.500   0.3466   0.03266   0.01939  -0.0410  0.9668  1.0000  -0.6505   0.0000   0.0000   0.0000   0.3666
   2.000   0.4648   0.03600   0.02308  -0.0562  0.9078  1.0000  -0.7864   0.0000   0.0000   0.0000   0.3687
   2.500   0.5591   0.03857   0.02610  -0.0649  0.8471  1.0000  -0.9206   0.0000   0.0000   0.0000   0.3632
   3.000   0.6459   0.04062   0.02871  -0.0697  0.7840  1.0000  -1.0794   0.0000   0.0000   0.0000   0.3546
   3.500   0.7194   0.04209   0.03070  -0.0698  0.7201  1.0000  -1.2743   0.0000   0.0000   0.0000   0.3432
   4.000   0.7847   0.04290   0.03206  -0.0664  0.6549  1.0000  -1.5746   0.0000   0.0000   0.0000   0.3303
   4.500   0.8492   0.04283   0.03248  -0.0601  0.5876  1.0000  -1.9728   0.0000   0.0000   0.0000   0.3159
   5.000   0.8928   0.04475   0.03475  -0.0539  0.5192  1.0000  -2.3257   0.0000   0.0000   0.0000   0.3049
   5.500   0.9309   0.04731   0.03769  -0.0480  0.4514  1.0000  -2.6501   0.0000   0.0000   0.0000   0.2955
   6.000   0.9779   0.04832   0.03887  -0.0408  0.3801  1.0000  -3.0583   0.0000   0.0000   0.0000   0.2850
   7.000   1.0438   0.05559   0.04640  -0.0294  0.2501  1.0000  -3.6100   0.0000   0.0000   0.0000   0.2699
   7.500   1.0421   0.06492   0.05628  -0.0271  0.2219  1.0000  -3.5963   0.0000   0.0000   0.0000   0.2673
   8.000   1.0113   0.07753   0.06930  -0.0280  0.2160  1.0000  -3.4227   0.0000   0.0000   0.0000   0.2689
  10.000   0.6320   0.14392   0.13499  -0.0595  0.4792  1.0000  -1.4506   0.0000   0.0000   0.0000   0.3368
  10.500   0.6477   0.15225   0.14347  -0.0593  0.4443  1.0000  -1.4923   0.0000   0.0000   0.0000   0.3339
  11.000   0.6455   0.15778   0.14909  -0.0585  0.4185  1.0000  -1.4851   0.0000   0.0000   0.0000   0.3328
  11.500   0.6481   0.16357   0.15497  -0.0582  0.3930  1.0000  -1.4826   0.0000   0.0000   0.0000   0.3316
  12.000   0.6509   0.16899   0.16050  -0.0578  0.3674  1.0000  -1.4747   0.0000   0.0000   0.0000   0.3303
  12.500   0.6448   0.17211   0.16368  -0.0576  0.3470  1.0000  -1.4347   0.0000   0.0000   0.0000   0.3306
  13.000   0.6500   0.17790   0.16953  -0.0580  0.3263  1.0000  -1.4186   0.0000   0.0000   0.0000   0.3301
  13.500   0.6522   0.18265   0.17433  -0.0586  0.3076  1.0000  -1.3890   0.0000   0.0000   0.0000   0.3303
  14.000   0.6643   0.19019   0.18193  -0.0593  0.2894  1.0000  -1.3803   0.0000   0.0000   0.0000   0.3293


