xflr5 v6.62

 Calculated polar for: AG36

 1 1 Reynolds number fixed          Mach number fixed         

 xtrf =   1.000 (top)        1.000 (bottom)
 Mach =   0.000     Re =     0.050 e 6     Ncrit =   9.000

  alpha     CL        CD       CDp       Cm    Top Xtr Bot Xtr   Cpmin    Chinge    XCp    
 ------- -------- --------- --------- -------- ------- ------- -------- --------- ---------
  -2.000   0.0461   0.01676   0.00706  -0.0280  1.0000  1.0000  -0.8073   0.0000   0.0000   0.0000   0.8674
  -1.500   0.0859   0.01755   0.00753  -0.0273  1.0000  1.0000  -0.6031   0.0000   0.0000   0.0000   0.5728
  -1.000   0.1226   0.01878   0.00854  -0.0273  1.0000  1.0000  -0.4335   0.0000   0.0000   0.0000   0.4754
  -0.500   0.1590   0.02046   0.01005  -0.0284  0.9988  1.0000  -0.4472   0.0000   0.0000   0.0000   0.4301
   0.000   0.2854   0.02222   0.01169  -0.0449  0.9544  1.0000  -0.5499   0.0000   0.0000   0.0000   0.4071
   0.500   0.3967   0.02325   0.01279  -0.0567  0.9099  1.0000  -0.6612   0.0000   0.0000   0.0000   0.3920
   1.000   0.4934   0.02373   0.01345  -0.0640  0.8659  1.0000  -0.7803   0.0000   0.0000   0.0000   0.3782
   1.500   0.5730   0.02393   0.01385  -0.0665  0.8216  1.0000  -0.9026   0.0000   0.0000   0.0000   0.3641
   2.000   0.6350   0.02424   0.01435  -0.0652  0.7749  1.0000  -1.0253   0.0000   0.0000   0.0000   0.3501
   2.500   0.6903   0.02442   0.01470  -0.0619  0.7270  1.0000  -1.1662   0.0000   0.0000   0.0000   0.3366
   3.000   0.7379   0.02486   0.01528  -0.0578  0.6739  1.0000  -1.3349   0.0000   0.0000   0.0000   0.3247
   3.500   0.7861   0.02519   0.01573  -0.0534  0.6185  1.0000  -1.6078   0.0000   0.0000   0.0000   0.3137
   4.000   0.8328   0.02612   0.01666  -0.0492  0.5579  1.0000  -1.9502   0.0000   0.0000   0.0000   0.3042
   4.500   0.8775   0.02739   0.01801  -0.0452  0.4916  1.0000  -2.3336   0.0000   0.0000   0.0000   0.2960
   5.000   0.9216   0.02839   0.01906  -0.0413  0.4221  1.0000  -2.7294   0.0000   0.0000   0.0000   0.2886
   5.500   0.9643   0.02962   0.02020  -0.0375  0.3497  1.0000  -3.1614   0.0000   0.0000   0.0000   0.2819
   6.000   1.0041   0.03167   0.02201  -0.0339  0.2750  1.0000  -3.5732   0.0000   0.0000   0.0000   0.2759
   6.500   1.0393   0.03477   0.02474  -0.0304  0.2008  1.0000  -3.9210   0.0000   0.0000   0.0000   0.2706
   7.000   1.0712   0.03971   0.02985  -0.0270  0.1470  1.0000  -4.1382   0.0000   0.0000   0.0000   0.2659
   7.500   1.1027   0.04596   0.03657  -0.0241  0.1189  1.0000  -4.2859   0.0000   0.0000   0.0000   0.2619
   8.000   1.1305   0.05334   0.04432  -0.0218  0.1040  1.0000  -4.4598   0.0000   0.0000   0.0000   0.2586
   8.500   1.1192   0.06303   0.05533  -0.0179  0.1009  1.0000  -4.3520   0.0000   0.0000   0.0000   0.2551
   9.000   1.0880   0.07340   0.06644  -0.0157  0.1009  1.0000  -4.1945   0.0000   0.0000   0.0000   0.2531
   9.500   1.0449   0.08410   0.07745  -0.0158  0.1029  1.0000  -4.0096   0.0000   0.0000   0.0000   0.2534
  11.000   0.6878   0.15425   0.14747  -0.0514  0.2768  1.0000  -1.6877   0.0000   0.0000   0.0000   0.3165
  11.500   0.6750   0.15920   0.15242  -0.0519  0.2628  1.0000  -1.6211   0.0000   0.0000   0.0000   0.3184
  12.000   0.6648   0.16325   0.15651  -0.0523  0.2476  1.0000  -1.5608   0.0000   0.0000   0.0000   0.3199
  12.500   0.6629   0.16806   0.16136  -0.0527  0.2311  1.0000  -1.5228   0.0000   0.0000   0.0000   0.3204
  13.000   0.6635   0.17335   0.16668  -0.0535  0.2176  1.0000  -1.4846   0.0000   0.0000   0.0000   0.3212
  13.500   0.6677   0.17897   0.17234  -0.0543  0.2034  1.0000  -1.4561   0.0000   0.0000   0.0000   0.3215
  14.000   0.6664   0.18389   0.17728  -0.0559  0.1932  1.0000  -1.4184   0.0000   0.0000   0.0000   0.3237


