xflr5 v6.62

 Calculated polar for: AG36

 1 1 Reynolds number fixed          Mach number fixed         

 xtrf =   1.000 (top)        1.000 (bottom)
 Mach =   0.000     Re =     0.032 e 6     Ncrit =   5.000

  alpha     CL        CD       CDp       Cm    Top Xtr Bot Xtr   Cpmin    Chinge    XCp    
 ------- -------- --------- --------- -------- ------- ------- -------- --------- ---------
  -2.000   0.0443   0.02019   0.00794  -0.0277  1.0000  1.0000  -0.7917   0.0000   0.0000   0.0000   0.8862
  -1.500   0.0840   0.02086   0.00821  -0.0267  1.0000  1.0000  -0.5949   0.0000   0.0000   0.0000   0.5726
  -1.000   0.1522   0.02184   0.00883  -0.0315  0.9807  1.0000  -0.4367   0.0000   0.0000   0.0000   0.4591
  -0.500   0.2462   0.02276   0.00952  -0.0405  0.9383  1.0000  -0.5127   0.0000   0.0000   0.0000   0.4151
   0.000   0.3377   0.02346   0.01015  -0.0481  0.8965  1.0000  -0.6003   0.0000   0.0000   0.0000   0.3922
   0.500   0.4166   0.02398   0.01070  -0.0524  0.8529  1.0000  -0.6923   0.0000   0.0000   0.0000   0.3748
   1.000   0.4866   0.02448   0.01128  -0.0543  0.8097  1.0000  -0.7901   0.0000   0.0000   0.0000   0.3601
   1.500   0.5487   0.02501   0.01191  -0.0543  0.7667  1.0000  -0.8935   0.0000   0.0000   0.0000   0.3470
   2.000   0.6018   0.02572   0.01277  -0.0529  0.7209  1.0000  -1.0011   0.0000   0.0000   0.0000   0.3352
   2.500   0.6533   0.02637   0.01360  -0.0508  0.6753  1.0000  -1.1275   0.0000   0.0000   0.0000   0.3245
   3.000   0.7034   0.02698   0.01437  -0.0481  0.6284  1.0000  -1.2800   0.0000   0.0000   0.0000   0.3146
   3.500   0.7518   0.02784   0.01541  -0.0453  0.5788  1.0000  -1.5211   0.0000   0.0000   0.0000   0.3059
   4.000   0.7978   0.02899   0.01674  -0.0424  0.5256  1.0000  -1.8324   0.0000   0.0000   0.0000   0.2981
   4.500   0.8424   0.03024   0.01825  -0.0395  0.4695  1.0000  -2.1883   0.0000   0.0000   0.0000   0.2912
   5.000   0.8840   0.03156   0.01987  -0.0366  0.4091  1.0000  -2.5622   0.0000   0.0000   0.0000   0.2850
   5.500   0.9237   0.03309   0.02161  -0.0335  0.3474  1.0000  -2.9446   0.0000   0.0000   0.0000   0.2791
   6.000   0.9604   0.03518   0.02377  -0.0304  0.2855  1.0000  -3.3452   0.0000   0.0000   0.0000   0.2738
   6.500   0.9922   0.03791   0.02650  -0.0274  0.2261  1.0000  -3.7177   0.0000   0.0000   0.0000   0.2690
   7.000   1.0180   0.04162   0.03030  -0.0245  0.1723  1.0000  -4.0285   0.0000   0.0000   0.0000   0.2647
   7.500   1.0397   0.04613   0.03497  -0.0217  0.1308  1.0000  -4.2841   0.0000   0.0000   0.0000   0.2608
   8.000   1.0603   0.05127   0.04026  -0.0192  0.1040  1.0000  -4.5086   0.0000   0.0000   0.0000   0.2573
   8.500   1.0720   0.05799   0.04773  -0.0168  0.0878  1.0000  -4.6127   0.0000   0.0000   0.0000   0.2543
   9.000   1.0722   0.06523   0.05551  -0.0148  0.0787  1.0000  -4.6959   0.0000   0.0000   0.0000   0.2518
   9.500   1.0501   0.07417   0.06503  -0.0140  0.0749  1.0000  -4.6253   0.0000   0.0000   0.0000   0.2508
  10.000   1.0124   0.08658   0.07793  -0.0185  0.0746  1.0000  -4.4039   0.0000   0.0000   0.0000   0.2553
  10.500   0.9580   0.10581   0.09741  -0.0301  0.0781  1.0000  -3.9220   0.0000   0.0000   0.0000   0.2685
  11.000   0.9225   0.12459   0.11609  -0.0406  0.0793  1.0000  -3.4995   0.0000   0.0000   0.0000   0.2812
  11.500   0.9023   0.14047   0.13178  -0.0489  0.0785  1.0000  -3.1825   0.0000   0.0000   0.0000   0.2915
  12.000   0.8939   0.15340   0.14460  -0.0553  0.0770  1.0000  -2.9761   0.0000   0.0000   0.0000   0.2990
  12.500   0.8932   0.16460   0.15574  -0.0607  0.0752  1.0000  -2.8384   0.0000   0.0000   0.0000   0.3048
  13.500   0.9082   0.18343   0.17455  -0.0688  0.0702  1.0000  -2.7375   0.0000   0.0000   0.0000   0.3118
  14.000   0.9159   0.19336   0.18444  -0.0739  0.0702  1.0000  -2.6349   0.0000   0.0000   0.0000   0.3163


