xflr5 v6.62

 Calculated polar for: E387

 1 1 Reynolds number fixed          Mach number fixed         

 xtrf =   1.000 (top)        1.000 (bottom)
 Mach =   0.000     Re =     0.032 e 6     Ncrit =   5.000

  alpha     CL        CD       CDp       Cm    Top Xtr Bot Xtr   Cpmin    Chinge    XCp    
 ------- -------- --------- --------- -------- ------- ------- -------- --------- ---------
  -2.000   0.0555   0.02815   0.01615  -0.0772  0.9108  0.2506  -1.9078   0.0000   0.0000   0.0000   1.6536
  -1.500   0.1200   0.02479   0.01493  -0.0768  0.8948  1.0000  -1.5878   0.0000   0.0000   0.0000   0.8951
  -1.000   0.1916   0.02549   0.01428  -0.0806  0.8771  1.0000  -1.1758   0.0000   0.0000   0.0000   0.6726
  -0.500   0.2520   0.02630   0.01424  -0.0823  0.8584  1.0000  -0.8047   0.0000   0.0000   0.0000   0.5775
   0.000   0.3082   0.02721   0.01451  -0.0833  0.8399  1.0000  -0.5411   0.0000   0.0000   0.0000   0.5203
   0.500   0.3632   0.02822   0.01503  -0.0841  0.8221  1.0000  -0.5738   0.0000   0.0000   0.0000   0.4808
   1.000   0.4164   0.02931   0.01577  -0.0845  0.8049  1.0000  -0.6081   0.0000   0.0000   0.0000   0.4517
   1.500   0.4679   0.03051   0.01673  -0.0847  0.7880  1.0000  -0.6449   0.0000   0.0000   0.0000   0.4292
   2.000   0.5181   0.03180   0.01787  -0.0846  0.7713  1.0000  -0.6856   0.0000   0.0000   0.0000   0.4112
   2.500   0.5673   0.03320   0.01922  -0.0845  0.7547  1.0000  -0.7325   0.0000   0.0000   0.0000   0.3963
   3.000   0.6154   0.03469   0.02072  -0.0841  0.7381  1.0000  -0.7865   0.0000   0.0000   0.0000   0.3836
   3.500   0.6630   0.03626   0.02237  -0.0837  0.7212  1.0000  -0.8509   0.0000   0.0000   0.0000   0.3727
   4.000   0.7111   0.03783   0.02414  -0.0831  0.7042  1.0000  -0.9302   0.0000   0.0000   0.0000   0.3629
   4.500   0.7460   0.03998   0.02648  -0.0815  0.6832  1.0000  -1.0081   0.0000   0.0000   0.0000   0.3547
   5.000   0.7879   0.04183   0.02866  -0.0801  0.6624  1.0000  -1.1147   0.0000   0.0000   0.0000   0.3468
   5.500   0.8391   0.04312   0.03033  -0.0791  0.6422  1.0000  -1.3140   0.0000   0.0000   0.0000   0.3388
   6.000   0.8717   0.04528   0.03292  -0.0767  0.6155  1.0000  -1.5904   0.0000   0.0000   0.0000   0.3320
   6.500   0.9126   0.04674   0.03486  -0.0743  0.5879  1.0000  -1.9166   0.0000   0.0000   0.0000   0.3248
   7.000   0.9552   0.04769   0.03642  -0.0713  0.5568  1.0000  -2.2679   0.0000   0.0000   0.0000   0.3175
   7.500   1.0039   0.04746   0.03685  -0.0676  0.5211  1.0000  -2.6675   0.0000   0.0000   0.0000   0.3096
   8.000   1.0464   0.04677   0.03691  -0.0626  0.4768  1.0000  -3.0551   0.0000   0.0000   0.0000   0.3015
   8.500   1.0871   0.04510   0.03593  -0.0565  0.4191  1.0000  -3.4980   0.0000   0.0000   0.0000   0.2928
   9.000   1.1185   0.04347   0.03456  -0.0490  0.3339  1.0000  -3.8983   0.0000   0.0000   0.0000   0.2839
   9.500   1.1208   0.04603   0.03641  -0.0425  0.2367  1.0000  -4.1099   0.0000   0.0000   0.0000   0.2771
  10.000   1.1086   0.05201   0.04174  -0.0387  0.1706  1.0000  -4.1880   0.0000   0.0000   0.0000   0.2734
  10.500   1.0972   0.05896   0.04833  -0.0369  0.1233  1.0000  -4.2343   0.0000   0.0000   0.0000   0.2714
  11.000   1.0932   0.06589   0.05514  -0.0359  0.0927  1.0000  -4.2967   0.0000   0.0000   0.0000   0.2699
  11.500   1.1007   0.07239   0.06165  -0.0346  0.0755  1.0000  -4.3935   0.0000   0.0000   0.0000   0.2677
  12.000   1.1115   0.07965   0.06951  -0.0338  0.0654  1.0000  -4.4519   0.0000   0.0000   0.0000   0.2661
  12.500   1.1117   0.08829   0.07866  -0.0346  0.0598  1.0000  -4.5025   0.0000   0.0000   0.0000   0.2661
  13.000   1.0952   0.09976   0.09082  -0.0381  0.0575  1.0000  -4.4154   0.0000   0.0000   0.0000   0.2692
  13.500   1.0655   0.11429   0.10589  -0.0449  0.0574  1.0000  -4.1973   0.0000   0.0000   0.0000   0.2760
  14.000   1.0289   0.13251   0.12441  -0.0553  0.0588  1.0000  -3.8315   0.0000   0.0000   0.0000   0.2873


