xflr5 v6.62

 Calculated polar for: E387

 1 1 Reynolds number fixed          Mach number fixed         

 xtrf =   1.000 (top)        1.000 (bottom)
 Mach =   0.000     Re =     0.050 e 6     Ncrit =   5.000

  alpha     CL        CD       CDp       Cm    Top Xtr Bot Xtr   Cpmin    Chinge    XCp    
 ------- -------- --------- --------- -------- ------- ------- -------- --------- ---------
  -2.000   0.1497   0.02027   0.01063  -0.0874  0.8486  0.4080  -1.7077   0.0000   0.0000   0.0000   0.8383
  -1.500   0.2183   0.01852   0.00984  -0.0872  0.8329  1.0000  -1.2800   0.0000   0.0000   0.0000   0.6517
  -1.000   0.2747   0.01887   0.00938  -0.0874  0.8152  1.0000  -0.9070   0.0000   0.0000   0.0000   0.5692
  -0.500   0.3292   0.01930   0.00918  -0.0872  0.7984  1.0000  -0.5823   0.0000   0.0000   0.0000   0.5151
   0.000   0.3827   0.01980   0.00922  -0.0869  0.7819  1.0000  -0.6036   0.0000   0.0000   0.0000   0.4766
   0.500   0.4354   0.02039   0.00945  -0.0865  0.7658  1.0000  -0.6374   0.0000   0.0000   0.0000   0.4477
   1.000   0.4880   0.02101   0.00981  -0.0860  0.7506  1.0000  -0.6734   0.0000   0.0000   0.0000   0.4250
   1.500   0.5396   0.02171   0.01034  -0.0855  0.7353  1.0000  -0.7127   0.0000   0.0000   0.0000   0.4066
   2.000   0.5904   0.02248   0.01102  -0.0849  0.7202  1.0000  -0.7567   0.0000   0.0000   0.0000   0.3915
   2.500   0.6404   0.02333   0.01186  -0.0842  0.7051  1.0000  -0.8095   0.0000   0.0000   0.0000   0.3788
   3.000   0.6898   0.02424   0.01280  -0.0834  0.6899  1.0000  -0.8727   0.0000   0.0000   0.0000   0.3678
   3.500   0.7388   0.02518   0.01388  -0.0826  0.6745  1.0000  -0.9508   0.0000   0.0000   0.0000   0.3582
   4.000   0.7878   0.02612   0.01497  -0.0816  0.6586  1.0000  -1.0478   0.0000   0.0000   0.0000   0.3495
   4.500   0.8373   0.02696   0.01606  -0.0804  0.6420  1.0000  -1.1762   0.0000   0.0000   0.0000   0.3415
   5.000   0.8814   0.02805   0.01744  -0.0788  0.6216  1.0000  -1.4063   0.0000   0.0000   0.0000   0.3343
   5.500   0.9282   0.02879   0.01856  -0.0770  0.5999  1.0000  -1.7541   0.0000   0.0000   0.0000   0.3273
   6.000   0.9771   0.02914   0.01927  -0.0749  0.5763  1.0000  -2.1329   0.0000   0.0000   0.0000   0.3205
   6.500   1.0268   0.02906   0.01963  -0.0723  0.5483  1.0000  -2.5365   0.0000   0.0000   0.0000   0.3137
   7.000   1.0665   0.02935   0.02041  -0.0689  0.5109  1.0000  -2.9097   0.0000   0.0000   0.0000   0.3072
   7.500   1.1059   0.02924   0.02081  -0.0649  0.4642  1.0000  -3.3273   0.0000   0.0000   0.0000   0.3007
   8.000   1.1379   0.02942   0.02127  -0.0601  0.3958  1.0000  -3.7318   0.0000   0.0000   0.0000   0.2940
   8.500   1.1510   0.03115   0.02261  -0.0539  0.2856  1.0000  -4.0337   0.0000   0.0000   0.0000   0.2873
   9.000   1.1367   0.03559   0.02622  -0.0474  0.1871  1.0000  -4.1756   0.0000   0.0000   0.0000   0.2815
   9.500   1.1193   0.04156   0.03163  -0.0437  0.1161  1.0000  -4.2708   0.0000   0.0000   0.0000   0.2781
  10.000   1.1094   0.04796   0.03780  -0.0415  0.0772  1.0000  -4.3478   0.0000   0.0000   0.0000   0.2758
  10.500   1.1064   0.05420   0.04404  -0.0399  0.0574  1.0000  -4.4308   0.0000   0.0000   0.0000   0.2737
  11.000   1.1119   0.05985   0.04986  -0.0381  0.0482  1.0000  -4.5476   0.0000   0.0000   0.0000   0.2712
  11.500   1.1310   0.06452   0.05487  -0.0356  0.0423  1.0000  -4.7139   0.0000   0.0000   0.0000   0.2677
  12.000   1.1604   0.06923   0.06006  -0.0328  0.0381  1.0000  -4.9804   0.0000   0.0000   0.0000   0.2638
  12.500   1.1675   0.07640   0.06791  -0.0324  0.0350  1.0000  -5.1128   0.0000   0.0000   0.0000   0.2625
  13.000   1.1589   0.08527   0.07733  -0.0338  0.0334  1.0000  -5.1551   0.0000   0.0000   0.0000   0.2632
  13.500   1.1379   0.09627   0.08886  -0.0374  0.0328  1.0000  -5.0853   0.0000   0.0000   0.0000   0.2662
  14.000   1.1039   0.11048   0.10356  -0.0444  0.0331  1.0000  -4.8646   0.0000   0.0000   0.0000   0.2729


