xflr5 v6.62

 Calculated polar for: E387

 1 1 Reynolds number fixed          Mach number fixed         

 xtrf =   1.000 (top)        1.000 (bottom)
 Mach =   0.000     Re =     0.040 e 6     Ncrit =   9.000

  alpha     CL        CD       CDp       Cm    Top Xtr Bot Xtr   Cpmin    Chinge    XCp    
 ------- -------- --------- --------- -------- ------- ------- -------- --------- ---------
  -2.000  -0.1288   0.03403   0.02383  -0.0536  1.0000  0.1466  -1.8563   0.0000   0.0000   0.0000  -0.1713
  -1.500  -0.0807   0.03153   0.02078  -0.0532  1.0000  0.1801  -1.8423   0.0000   0.0000   0.0000  -0.4163
  -1.000  -0.0246   0.02849   0.01839  -0.0533  1.0000  0.3633  -1.8442   0.0000   0.0000   0.0000  -1.9319
  -0.500   0.0137   0.02575   0.01682  -0.0494  1.0000  1.0000  -1.7035   0.0000   0.0000   0.0000   3.8762
   0.000   0.0676   0.02749   0.01751  -0.0521  0.9938  1.0000  -1.3508   0.0000   0.0000   0.0000   1.0227
   0.500   0.1370   0.02973   0.01895  -0.0577  0.9764  1.0000  -0.9427   0.0000   0.0000   0.0000   0.6718
   1.000   0.2009   0.03201   0.02065  -0.0624  0.9598  1.0000  -0.6022   0.0000   0.0000   0.0000   0.5598
   1.500   0.2597   0.03434   0.02258  -0.0662  0.9437  1.0000  -0.4814   0.0000   0.0000   0.0000   0.5033
   2.000   0.3142   0.03676   0.02470  -0.0693  0.9280  1.0000  -0.5156   0.0000   0.0000   0.0000   0.4683
   2.500   0.3650   0.03929   0.02705  -0.0718  0.9124  1.0000  -0.5517   0.0000   0.0000   0.0000   0.4439
   3.000   0.4132   0.04199   0.02964  -0.0739  0.8965  1.0000  -0.5907   0.0000   0.0000   0.0000   0.4257
   3.500   0.4605   0.04487   0.03250  -0.0760  0.8798  1.0000  -0.6347   0.0000   0.0000   0.0000   0.4113
   4.000   0.5146   0.04811   0.03579  -0.0789  0.8605  1.0000  -0.6913   0.0000   0.0000   0.0000   0.3992
   4.500   0.5485   0.05118   0.03895  -0.0791  0.8412  1.0000  -0.7376   0.0000   0.0000   0.0000   0.3896
   5.000   0.5904   0.05457   0.04252  -0.0803  0.8180  1.0000  -0.8010   0.0000   0.0000   0.0000   0.3810
   5.500   0.6324   0.05814   0.04631  -0.0814  0.7902  1.0000  -0.8749   0.0000   0.0000   0.0000   0.3732
   6.000   0.6797   0.06178   0.05027  -0.0826  0.7561  1.0000  -0.9697   0.0000   0.0000   0.0000   0.3655
   6.500   0.7305   0.06531   0.05415  -0.0833  0.7154  1.0000  -1.1056   0.0000   0.0000   0.0000   0.3576
   7.000   0.7831   0.06851   0.05782  -0.0832  0.6695  1.0000  -1.3939   0.0000   0.0000   0.0000   0.3494
   7.500   0.8286   0.07142   0.06120  -0.0817  0.6196  1.0000  -1.7109   0.0000   0.0000   0.0000   0.3413
   8.000   0.8979   0.07220   0.06269  -0.0792  0.5615  1.0000  -2.1586   0.0000   0.0000   0.0000   0.3304
   8.500   0.9619   0.07106   0.06229  -0.0739  0.4973  1.0000  -2.6150   0.0000   0.0000   0.0000   0.3184
   9.500   1.1743   0.04555   0.03562  -0.0412  0.1635  1.0000  -4.0814   0.0000   0.0000   0.0000   0.2743
  10.000   1.2333   0.05340   0.04313  -0.0402  0.1152  1.0000  -4.1949   0.0000   0.0000   0.0000   0.2711
  10.500   1.2570   0.06150   0.05227  -0.0372  0.1066  1.0000  -4.2256   0.0000   0.0000   0.0000   0.2676
  11.000   1.2721   0.07065   0.06203  -0.0349  0.1031  1.0000  -4.3005   0.0000   0.0000   0.0000   0.2649
  11.500   1.2282   0.07886   0.07102  -0.0305  0.1046  1.0000  -4.1563   0.0000   0.0000   0.0000   0.2618
  12.000   1.1589   0.09004   0.08274  -0.0318  0.1081  1.0000  -3.8950   0.0000   0.0000   0.0000   0.2638
  12.500   1.0965   0.10548   0.09843  -0.0391  0.1123  1.0000  -3.6054   0.0000   0.0000   0.0000   0.2715
  13.000   1.0606   0.12184   0.11484  -0.0468  0.1153  1.0000  -3.3776   0.0000   0.0000   0.0000   0.2796
  13.500   0.9741   0.15447   0.14712  -0.0705  0.1411  1.0000  -2.6067   0.0000   0.0000   0.0000   0.3083


