xflr5 v6.62

 Calculated polar for: E387

 1 1 Reynolds number fixed          Mach number fixed         

 xtrf =   1.000 (top)        1.000 (bottom)
 Mach =   0.000     Re =     0.050 e 6     Ncrit =   9.000

  alpha     CL        CD       CDp       Cm    Top Xtr Bot Xtr   Cpmin    Chinge    XCp    
 ------- -------- --------- --------- -------- ------- ------- -------- --------- ---------
  -2.000  -0.0850   0.03155   0.02173  -0.0609  0.9836  0.1230  -1.8545   0.0000   0.0000   0.0000  -0.4741
  -1.500  -0.0036   0.02882   0.01866  -0.0654  0.9690  0.1902  -1.8324   0.0000   0.0000   0.0000  -18.3446
  -1.000   0.0729   0.02446   0.01670  -0.0672  0.9552  1.0000  -1.6875   0.0000   0.0000   0.0000   1.1793
  -0.500   0.1420   0.02592   0.01705  -0.0716  0.9373  1.0000  -1.2737   0.0000   0.0000   0.0000   0.7566
   0.000   0.2039   0.02742   0.01787  -0.0748  0.9196  1.0000  -0.8866   0.0000   0.0000   0.0000   0.6175
   0.500   0.2623   0.02903   0.01896  -0.0774  0.9025  1.0000  -0.5617   0.0000   0.0000   0.0000   0.5448
   1.000   0.3175   0.03075   0.02032  -0.0795  0.8856  1.0000  -0.5215   0.0000   0.0000   0.0000   0.4993
   1.500   0.3698   0.03259   0.02189  -0.0811  0.8691  1.0000  -0.5548   0.0000   0.0000   0.0000   0.4676
   2.000   0.4193   0.03457   0.02370  -0.0823  0.8527  1.0000  -0.5902   0.0000   0.0000   0.0000   0.4440
   2.500   0.4668   0.03670   0.02572  -0.0832  0.8361  1.0000  -0.6294   0.0000   0.0000   0.0000   0.4256
   3.000   0.5135   0.03896   0.02795  -0.0839  0.8189  1.0000  -0.6739   0.0000   0.0000   0.0000   0.4104
   3.500   0.5629   0.04130   0.03033  -0.0850  0.8006  1.0000  -0.7281   0.0000   0.0000   0.0000   0.3975
   4.000   0.6131   0.04374   0.03285  -0.0859  0.7810  1.0000  -0.7933   0.0000   0.0000   0.0000   0.3862
   4.500   0.6438   0.04650   0.03575  -0.0846  0.7590  1.0000  -0.8494   0.0000   0.0000   0.0000   0.3771
   5.000   0.7063   0.04873   0.03820  -0.0862  0.7346  1.0000  -0.9565   0.0000   0.0000   0.0000   0.3672
   5.500   0.7427   0.05138   0.04112  -0.0850  0.7065  1.0000  -1.0534   0.0000   0.0000   0.0000   0.3591
   6.000   0.7923   0.05355   0.04362  -0.0844  0.6751  1.0000  -1.2284   0.0000   0.0000   0.0000   0.3506
   6.500   0.8521   0.05487   0.04541  -0.0834  0.6400  1.0000  -1.6097   0.0000   0.0000   0.0000   0.3415
   7.000   0.8976   0.05619   0.04716  -0.0806  0.5996  1.0000  -1.9563   0.0000   0.0000   0.0000   0.3329
   7.500   0.9896   0.05260   0.04441  -0.0770  0.5538  1.0000  -2.5541   0.0000   0.0000   0.0000   0.3203
   8.000   1.1563   0.03625   0.02925  -0.0686  0.4867  1.0000  -3.6910   0.0000   0.0000   0.0000   0.3009
   8.500   1.1881   0.03119   0.02386  -0.0569  0.3456  1.0000  -4.1187   0.0000   0.0000   0.0000   0.2885
   9.000   1.1614   0.03579   0.02691  -0.0470  0.2115  1.0000  -4.1494   0.0000   0.0000   0.0000   0.2803
   9.500   1.1534   0.04238   0.03246  -0.0403  0.1285  1.0000  -4.1033   0.0000   0.0000   0.0000   0.2740
  10.000   1.2381   0.04966   0.03970  -0.0409  0.0903  1.0000  -4.2762   0.0000   0.0000   0.0000   0.2715
  10.500   1.2734   0.05771   0.04863  -0.0387  0.0840  1.0000  -4.4009   0.0000   0.0000   0.0000   0.2683
  11.000   1.2760   0.06519   0.05690  -0.0349  0.0804  1.0000  -4.4574   0.0000   0.0000   0.0000   0.2647
  11.500   1.2542   0.07285   0.06521  -0.0306  0.0797  1.0000  -4.4222   0.0000   0.0000   0.0000   0.2611
  12.000   1.2084   0.08201   0.07495  -0.0289  0.0813  1.0000  -4.2692   0.0000   0.0000   0.0000   0.2600
  12.500   1.1553   0.09404   0.08742  -0.0320  0.0839  1.0000  -4.0554   0.0000   0.0000   0.0000   0.2632
  13.000   1.1090   0.10851   0.10213  -0.0385  0.0866  1.0000  -3.8320   0.0000   0.0000   0.0000   0.2696
  14.000   0.9818   0.16099   0.15444  -0.0725  0.1139  1.0000  -2.5954   0.0000   0.0000   0.0000   0.3091


