xflr5 v6.62

 Calculated polar for: E387

 1 1 Reynolds number fixed          Mach number fixed         

 xtrf =   1.000 (top)        1.000 (bottom)
 Mach =   0.000     Re =     0.024 e 6     Ncrit =   5.000

  alpha     CL        CD       CDp       Cm    Top Xtr Bot Xtr   Cpmin    Chinge    XCp    
 ------- -------- --------- --------- -------- ------- ------- -------- --------- ---------
  -2.000  -0.0456   0.03412   0.02062  -0.0624  0.9703  0.1888  -2.0098   0.0000   0.0000   0.0000  -1.1346
  -1.500   0.0190   0.03001   0.01846  -0.0644  0.9552  0.5008  -1.8491   0.0000   0.0000   0.0000   3.6650
  -1.000   0.0842   0.02921   0.01719  -0.0654  0.9336  1.0000  -1.5162   0.0000   0.0000   0.0000   1.0323
  -0.500   0.1504   0.03041   0.01708  -0.0690  0.9136  1.0000  -1.1289   0.0000   0.0000   0.0000   0.7108
   0.000   0.2151   0.03171   0.01748  -0.0723  0.8946  1.0000  -0.7677   0.0000   0.0000   0.0000   0.5866
   0.500   0.2785   0.03309   0.01816  -0.0753  0.8765  1.0000  -0.5137   0.0000   0.0000   0.0000   0.5200
   1.000   0.3311   0.03457   0.01914  -0.0766  0.8574  1.0000  -0.5448   0.0000   0.0000   0.0000   0.4801
   1.500   0.3833   0.03617   0.02039  -0.0777  0.8390  1.0000  -0.5789   0.0000   0.0000   0.0000   0.4510
   2.000   0.4347   0.03789   0.02188  -0.0787  0.8209  1.0000  -0.6166   0.0000   0.0000   0.0000   0.4289
   2.500   0.4853   0.03973   0.02358  -0.0796  0.8031  1.0000  -0.6592   0.0000   0.0000   0.0000   0.4114
   3.000   0.5354   0.04169   0.02553  -0.0804  0.7853  1.0000  -0.7080   0.0000   0.0000   0.0000   0.3970
   3.500   0.5857   0.04375   0.02763  -0.0811  0.7675  1.0000  -0.7652   0.0000   0.0000   0.0000   0.3850
   4.000   0.6266   0.04605   0.03005  -0.0807  0.7481  1.0000  -0.8240   0.0000   0.0000   0.0000   0.3748
   4.500   0.6644   0.04852   0.03273  -0.0799  0.7272  1.0000  -0.8908   0.0000   0.0000   0.0000   0.3658
   5.000   0.7110   0.05088   0.03537  -0.0799  0.7062  1.0000  -0.9806   0.0000   0.0000   0.0000   0.3574
   5.500   0.7461   0.05358   0.03844  -0.0787  0.6821  1.0000  -1.0737   0.0000   0.0000   0.0000   0.3500
   6.000   0.7960   0.05583   0.04115  -0.0784  0.6576  1.0000  -1.2331   0.0000   0.0000   0.0000   0.3425
   6.500   0.8295   0.05858   0.04440  -0.0765  0.6283  1.0000  -1.4970   0.0000   0.0000   0.0000   0.3358
   7.000   0.8697   0.06091   0.04728  -0.0747  0.5966  1.0000  -1.8042   0.0000   0.0000   0.0000   0.3289
   7.500   0.9028   0.06334   0.05034  -0.0720  0.5603  1.0000  -2.0943   0.0000   0.0000   0.0000   0.3222
   8.000   0.9452   0.06463   0.05235  -0.0687  0.5196  1.0000  -2.4406   0.0000   0.0000   0.0000   0.3145
   8.500   0.9888   0.06471   0.05322  -0.0639  0.4726  1.0000  -2.8102   0.0000   0.0000   0.0000   0.3059
   9.000   1.0106   0.06613   0.05534  -0.0589  0.4183  1.0000  -3.0811   0.0000   0.0000   0.0000   0.2988
   9.500   1.0676   0.06123   0.05136  -0.0498  0.3446  1.0000  -3.6149   0.0000   0.0000   0.0000   0.2863
  10.000   1.1105   0.05773   0.04754  -0.0398  0.2365  1.0000  -4.0502   0.0000   0.0000   0.0000   0.2745
  10.500   1.1104   0.06325   0.05237  -0.0357  0.1740  1.0000  -4.1485   0.0000   0.0000   0.0000   0.2701
  11.000   1.1060   0.07063   0.05969  -0.0340  0.1359  1.0000  -4.1744   0.0000   0.0000   0.0000   0.2680
  11.500   1.1038   0.07841   0.06756  -0.0334  0.1114  1.0000  -4.2036   0.0000   0.0000   0.0000   0.2668
  12.000   1.0983   0.08748   0.07703  -0.0342  0.0975  1.0000  -4.1902   0.0000   0.0000   0.0000   0.2671
  12.500   1.0941   0.09667   0.08646  -0.0355  0.0879  1.0000  -4.1927   0.0000   0.0000   0.0000   0.2678
  13.000   1.0631   0.11115   0.10155  -0.0419  0.0869  1.0000  -3.9692   0.0000   0.0000   0.0000   0.2742
  13.500   1.0299   0.12791   0.11857  -0.0507  0.0873  1.0000  -3.6785   0.0000   0.0000   0.0000   0.2837
  14.000   1.0035   0.14546   0.13611  -0.0604  0.0875  1.0000  -3.3606   0.0000   0.0000   0.0000   0.2945


