xflr5 v6.62

 Calculated polar for: E387

 1 1 Reynolds number fixed          Mach number fixed         

 xtrf =   1.000 (top)        1.000 (bottom)
 Mach =   0.000     Re =     0.032 e 6     Ncrit =   9.000

  alpha     CL        CD       CDp       Cm    Top Xtr Bot Xtr   Cpmin    Chinge    XCp    
 ------- -------- --------- --------- -------- ------- ------- -------- --------- ---------
  -2.000  -0.1305   0.03594   0.02528  -0.0533  1.0000  0.1938  -1.8193   0.0000   0.0000   0.0000  -0.1636
  -1.500  -0.0781   0.03300   0.02181  -0.0534  1.0000  0.2536  -1.8183   0.0000   0.0000   0.0000  -0.4403
  -1.000  -0.0251   0.02800   0.01885  -0.0505  1.0000  0.5974  -1.8379   0.0000   0.0000   0.0000  -1.7831
  -0.500   0.0151   0.02722   0.01705  -0.0487  1.0000  1.0000  -1.6590   0.0000   0.0000   0.0000   3.4914
   0.000   0.0548   0.02857   0.01738  -0.0487  1.0000  1.0000  -1.3606   0.0000   0.0000   0.0000   1.1433
   0.500   0.0931   0.03008   0.01817  -0.0488  1.0000  1.0000  -1.0648   0.0000   0.0000   0.0000   0.7748
   1.000   0.1304   0.03175   0.01927  -0.0489  1.0000  1.0000  -0.7842   0.0000   0.0000   0.0000   0.6241
   1.500   0.1669   0.03359   0.02063  -0.0491  1.0000  1.0000  -0.5570   0.0000   0.0000   0.0000   0.5423
   2.000   0.2025   0.03559   0.02229  -0.0494  1.0000  1.0000  -0.4491   0.0000   0.0000   0.0000   0.4911
   2.500   0.2373   0.03777   0.02418  -0.0497  1.0000  1.0000  -0.4709   0.0000   0.0000   0.0000   0.4563
   3.000   0.2712   0.04014   0.02636  -0.0501  1.0000  1.0000  -0.4948   0.0000   0.0000   0.0000   0.4312
   3.500   0.3041   0.04270   0.02880  -0.0506  1.0000  1.0000  -0.5211   0.0000   0.0000   0.0000   0.4124
   4.000   0.3360   0.04549   0.03153  -0.0513  1.0000  1.0000  -0.5497   0.0000   0.0000   0.0000   0.3981
   4.500   0.3667   0.04852   0.03456  -0.0521  1.0000  1.0000  -0.5807   0.0000   0.0000   0.0000   0.3869
   5.000   0.3963   0.05182   0.03792  -0.0530  1.0000  1.0000  -0.6141   0.0000   0.0000   0.0000   0.3782
   5.500   0.4245   0.05542   0.04162  -0.0541  1.0000  1.0000  -0.6510   0.0000   0.0000   0.0000   0.3714
   6.000   0.4513   0.05936   0.04571  -0.0554  1.0000  1.0000  -0.6904   0.0000   0.0000   0.0000   0.3663
   6.500   0.4765   0.06369   0.05025  -0.0570  1.0000  1.0000  -0.7314   0.0000   0.0000   0.0000   0.3626
   7.000   0.5002   0.06843   0.05521  -0.0588  1.0000  1.0000  -0.7734   0.0000   0.0000   0.0000   0.3600
   7.500   0.5327   0.07458   0.06164  -0.0630  0.9943  1.0000  -0.8309   0.0000   0.0000   0.0000   0.3603
   8.000   0.6143   0.08513   0.07285  -0.0774  0.9140  1.0000  -0.9679   0.0000   0.0000   0.0000   0.3676
   8.500   0.6871   0.09528   0.08357  -0.0865  0.8291  1.0000  -1.2184   0.0000   0.0000   0.0000   0.3673
   9.000   0.8839   0.09247   0.08229  -0.0810  0.5337  1.0000  -2.2135   0.0000   0.0000   0.0000   0.3329
   9.500   0.9147   0.09601   0.08634  -0.0772  0.4688  1.0000  -2.4557   0.0000   0.0000   0.0000   0.3251
  10.000   0.9522   0.09853   0.08945  -0.0722  0.4013  1.0000  -2.7250   0.0000   0.0000   0.0000   0.3160
  12.000   1.0026   0.12103   0.11302  -0.0584  0.1966  1.0000  -3.0039   0.0000   0.0000   0.0000   0.2956
  12.500   0.9704   0.13924   0.13104  -0.0678  0.2052  1.0000  -2.7201   0.0000   0.0000   0.0000   0.3071
  13.000   0.9598   0.15299   0.14471  -0.0734  0.2038  1.0000  -2.5439   0.0000   0.0000   0.0000   0.3134
  14.000   0.9086   0.19061   0.18206  -0.1010  0.3662  1.0000  -1.9320   0.0000   0.0000   0.0000   0.3477


