xflr5 v6.62

 Calculated polar for: E387

 1 1 Reynolds number fixed          Mach number fixed         

 xtrf =   1.000 (top)        1.000 (bottom)
 Mach =   0.000     Re =     0.040 e 6     Ncrit =   5.000

  alpha     CL        CD       CDp       Cm    Top Xtr Bot Xtr   Cpmin    Chinge    XCp    
 ------- -------- --------- --------- -------- ------- ------- -------- --------- ---------
  -2.000   0.1169   0.02356   0.01309  -0.0850  0.8782  0.3651  -1.7862   0.0000   0.0000   0.0000   0.9830
  -1.500   0.1854   0.02155   0.01216  -0.0849  0.8624  1.0000  -1.3823   0.0000   0.0000   0.0000   0.7109
  -1.000   0.2476   0.02201   0.01165  -0.0864  0.8446  1.0000  -0.9930   0.0000   0.0000   0.0000   0.6004
  -0.500   0.3015   0.02265   0.01160  -0.0866  0.8256  1.0000  -0.6620   0.0000   0.0000   0.0000   0.5376
   0.000   0.3552   0.02335   0.01178  -0.0867  0.8080  1.0000  -0.5778   0.0000   0.0000   0.0000   0.4937
   0.500   0.4078   0.02412   0.01215  -0.0865  0.7911  1.0000  -0.6106   0.0000   0.0000   0.0000   0.4614
   1.000   0.4600   0.02497   0.01271  -0.0864  0.7746  1.0000  -0.6455   0.0000   0.0000   0.0000   0.4364
   1.500   0.5112   0.02591   0.01345  -0.0860  0.7585  1.0000  -0.6837   0.0000   0.0000   0.0000   0.4166
   2.000   0.5612   0.02693   0.01436  -0.0856  0.7427  1.0000  -0.7261   0.0000   0.0000   0.0000   0.4003
   2.500   0.6102   0.02805   0.01545  -0.0850  0.7268  1.0000  -0.7758   0.0000   0.0000   0.0000   0.3867
   3.000   0.6581   0.02925   0.01668  -0.0843  0.7108  1.0000  -0.8341   0.0000   0.0000   0.0000   0.3750
   3.500   0.7052   0.03052   0.01808  -0.0834  0.6945  1.0000  -0.9042   0.0000   0.0000   0.0000   0.3647
   4.000   0.7519   0.03181   0.01953  -0.0824  0.6777  1.0000  -0.9901   0.0000   0.0000   0.0000   0.3556
   4.500   0.7993   0.03303   0.02103  -0.0813  0.6601  1.0000  -1.0951   0.0000   0.0000   0.0000   0.3472
   5.000   0.8491   0.03403   0.02230  -0.0800  0.6421  1.0000  -1.2468   0.0000   0.0000   0.0000   0.3393
   5.500   0.8862   0.03567   0.02434  -0.0778  0.6183  1.0000  -1.5419   0.0000   0.0000   0.0000   0.3323
   6.000   0.9383   0.03610   0.02519  -0.0759  0.5961  1.0000  -1.9184   0.0000   0.0000   0.0000   0.3248
   6.500   0.9796   0.03693   0.02654  -0.0730  0.5676  1.0000  -2.2689   0.0000   0.0000   0.0000   0.3179
   7.000   1.0275   0.03675   0.02689  -0.0698  0.5356  1.0000  -2.6691   0.0000   0.0000   0.0000   0.3106
   7.500   1.0678   0.03654   0.02724  -0.0655  0.4947  1.0000  -3.0489   0.0000   0.0000   0.0000   0.3034
   8.000   1.1104   0.03536   0.02664  -0.0604  0.4419  1.0000  -3.5056   0.0000   0.0000   0.0000   0.2958
   8.500   1.1325   0.03569   0.02726  -0.0543  0.3627  1.0000  -3.8531   0.0000   0.0000   0.0000   0.2886
   9.000   1.1360   0.03785   0.02882  -0.0474  0.2587  1.0000  -4.0939   0.0000   0.0000   0.0000   0.2816
   9.500   1.1206   0.04320   0.03357  -0.0425  0.1809  1.0000  -4.1934   0.0000   0.0000   0.0000   0.2770
  10.000   1.1033   0.04999   0.03983  -0.0403  0.1229  1.0000  -4.2542   0.0000   0.0000   0.0000   0.2749
  10.500   1.0930   0.05699   0.04648  -0.0391  0.0876  1.0000  -4.3169   0.0000   0.0000   0.0000   0.2734
  11.000   1.0964   0.06324   0.05286  -0.0375  0.0673  1.0000  -4.3929   0.0000   0.0000   0.0000   0.2711
  11.500   1.1066   0.06913   0.05900  -0.0360  0.0556  1.0000  -4.5135   0.0000   0.0000   0.0000   0.2688
  12.000   1.1254   0.07482   0.06498  -0.0341  0.0494  1.0000  -4.6745   0.0000   0.0000   0.0000   0.2658
  12.500   1.1373   0.08251   0.07349  -0.0334  0.0463  1.0000  -4.7715   0.0000   0.0000   0.0000   0.2642
  13.000   1.1268   0.09266   0.08434  -0.0355  0.0450  1.0000  -4.7435   0.0000   0.0000   0.0000   0.2657
  13.500   1.0994   0.10562   0.09784  -0.0409  0.0448  1.0000  -4.5831   0.0000   0.0000   0.0000   0.2708
  14.000   1.0598   0.12259   0.11520  -0.0503  0.0457  1.0000  -4.2562   0.0000   0.0000   0.0000   0.2806


