xflr5 v6.62

 Calculated polar for: E387

 1 1 Reynolds number fixed          Mach number fixed         

 xtrf =   1.000 (top)        1.000 (bottom)
 Mach =   0.000     Re =     0.024 e 6     Ncrit =   9.000

  alpha     CL        CD       CDp       Cm    Top Xtr Bot Xtr   Cpmin    Chinge    XCp    
 ------- -------- --------- --------- -------- ------- ------- -------- --------- ---------
  -2.000  -0.1357   0.03856   0.02726  -0.0515  1.0000  0.2768  -1.7940   0.0000   0.0000   0.0000  -0.1341
  -1.500  -0.0803   0.03475   0.02313  -0.0513  1.0000  0.3808  -1.8107   0.0000   0.0000   0.0000  -0.3964
  -1.000  -0.0276   0.02836   0.01816  -0.0474  1.0000  1.0000  -1.8629   0.0000   0.0000   0.0000  -1.4851
  -0.500   0.0168   0.02949   0.01747  -0.0478  1.0000  1.0000  -1.5982   0.0000   0.0000   0.0000   3.1180
   0.000   0.0561   0.03078   0.01767  -0.0478  1.0000  1.0000  -1.3061   0.0000   0.0000   0.0000   1.1047
   0.500   0.0942   0.03223   0.01832  -0.0478  1.0000  1.0000  -1.0177   0.0000   0.0000   0.0000   0.7575
   1.000   0.1314   0.03385   0.01931  -0.0478  1.0000  1.0000  -0.7581   0.0000   0.0000   0.0000   0.6130
   1.500   0.1678   0.03564   0.02056  -0.0480  1.0000  1.0000  -0.5346   0.0000   0.0000   0.0000   0.5339
   2.000   0.2034   0.03760   0.02212  -0.0482  1.0000  1.0000  -0.4544   0.0000   0.0000   0.0000   0.4843
   2.500   0.2381   0.03973   0.02394  -0.0485  1.0000  1.0000  -0.4761   0.0000   0.0000   0.0000   0.4504
   3.000   0.2720   0.04206   0.02605  -0.0489  1.0000  1.0000  -0.5002   0.0000   0.0000   0.0000   0.4260
   3.500   0.3049   0.04459   0.02843  -0.0494  1.0000  1.0000  -0.5263   0.0000   0.0000   0.0000   0.4077
   4.000   0.3368   0.04733   0.03110  -0.0500  1.0000  1.0000  -0.5551   0.0000   0.0000   0.0000   0.3937
   4.500   0.3676   0.05031   0.03408  -0.0507  1.0000  1.0000  -0.5863   0.0000   0.0000   0.0000   0.3828
   5.000   0.3973   0.05355   0.03740  -0.0516  1.0000  1.0000  -0.6201   0.0000   0.0000   0.0000   0.3742
   5.500   0.4256   0.05708   0.04104  -0.0526  1.0000  1.0000  -0.6573   0.0000   0.0000   0.0000   0.3676
   6.000   0.4525   0.06094   0.04506  -0.0538  1.0000  1.0000  -0.6973   0.0000   0.0000   0.0000   0.3625
   6.500   0.4779   0.06517   0.04953  -0.0553  1.0000  1.0000  -0.7392   0.0000   0.0000   0.0000   0.3587
   7.000   0.5017   0.06980   0.05441  -0.0570  1.0000  1.0000  -0.7826   0.0000   0.0000   0.0000   0.3561
   7.500   0.5239   0.07486   0.05975  -0.0590  1.0000  1.0000  -0.8284   0.0000   0.0000   0.0000   0.3546
   8.000   0.5445   0.08040   0.06566  -0.0612  1.0000  1.0000  -0.8803   0.0000   0.0000   0.0000   0.3539
   8.500   0.5637   0.08643   0.07202  -0.0637  1.0000  1.0000  -0.9325   0.0000   0.0000   0.0000   0.3541
   9.000   0.5815   0.09294   0.07888  -0.0665  1.0000  1.0000  -0.9871   0.0000   0.0000   0.0000   0.3549
   9.500   0.6607   0.10749   0.09425  -0.0832  0.9229  1.0000  -1.2693   0.0000   0.0000   0.0000   0.3659
  10.000   0.7049   0.11766   0.10501  -0.0900  0.8415  1.0000  -1.4643   0.0000   0.0000   0.0000   0.3674
  10.500   0.7395   0.12724   0.11509  -0.0940  0.7714  1.0000  -1.6235   0.0000   0.0000   0.0000   0.3665
  11.000   0.7662   0.13662   0.12488  -0.0966  0.7147  1.0000  -1.7446   0.0000   0.0000   0.0000   0.3651
  11.500   0.7874   0.14547   0.13416  -0.0984  0.6653  1.0000  -1.8327   0.0000   0.0000   0.0000   0.3636
  12.000   0.8089   0.15488   0.14390  -0.1004  0.6221  1.0000  -1.9012   0.0000   0.0000   0.0000   0.3623
  12.500   0.8346   0.16531   0.15465  -0.1024  0.5786  1.0000  -1.9553   0.0000   0.0000   0.0000   0.3605
  13.000   0.8485   0.17404   0.16360  -0.1040  0.5475  1.0000  -1.9605   0.0000   0.0000   0.0000   0.3600
  13.500   0.8650   0.18344   0.17319  -0.1059  0.5172  1.0000  -1.9530   0.0000   0.0000   0.0000   0.3593
  14.000   0.8785   0.19174   0.18167  -0.1076  0.4862  1.0000  -1.9153   0.0000   0.0000   0.0000   0.3588


