xflr5 v6.62

 Calculated polar for: NACA 0008

 1 1 Reynolds number fixed          Mach number fixed         

 xtrf =   1.000 (top)        1.000 (bottom)
 Mach =   0.000     Re =     0.012 e 6     Ncrit =   5.000

  alpha     CL        CD       CDp       Cm    Top Xtr Bot Xtr   Cpmin    Chinge    XCp    
 ------- -------- --------- --------- -------- ------- ------- -------- --------- ---------
  -5.000  -0.5531   0.04475   0.02913   0.0070  1.0000  0.5034  -2.1879   0.0000   0.0000   0.0000   0.2595
  -4.500  -0.3395   0.04187   0.02382   0.0004  1.0000  0.9389  -1.4307   0.0000   0.0000   0.0000   0.2471
  -4.000  -0.2591   0.03726   0.01790  -0.0131  1.0000  1.0000  -1.1818   0.0000   0.0000   0.0000   0.1950
  -3.500  -0.2352   0.03510   0.01514  -0.0131  1.0000  1.0000  -1.0427   0.0000   0.0000   0.0000   0.1902
  -3.000  -0.2071   0.03357   0.01303  -0.0122  1.0000  1.0000  -0.8860   0.0000   0.0000   0.0000   0.1873
  -2.500  -0.1758   0.03248   0.01142  -0.0108  1.0000  1.0000  -0.7469   0.0000   0.0000   0.0000   0.1853
  -2.000  -0.1425   0.03172   0.01004  -0.0089  1.0000  1.0000  -0.6149   0.0000   0.0000   0.0000   0.1840
  -1.500  -0.1077   0.03120   0.00914  -0.0069  1.0000  1.0000  -0.5021   0.0000   0.0000   0.0000   0.1828
  -1.000  -0.0722   0.03087   0.00853  -0.0047  1.0000  1.0000  -0.4094   0.0000   0.0000   0.0000   0.1818
  -0.500  -0.0362   0.03068   0.00818  -0.0024  1.0000  1.0000  -0.3371   0.0000   0.0000   0.0000   0.1814
   0.000  -0.0000   0.03061   0.00809   0.0000  1.0000  1.0000  -0.2822   0.0000   0.0000   0.0000   0.4082
   0.500   0.0362   0.03068   0.00818   0.0024  1.0000  1.0000  -0.3371   0.0000   0.0000   0.0000   0.1814
   1.000   0.0722   0.03087   0.00853   0.0047  1.0000  1.0000  -0.4095   0.0000   0.0000   0.0000   0.1818
   1.500   0.1078   0.03120   0.00914   0.0069  1.0000  1.0000  -0.5022   0.0000   0.0000   0.0000   0.1829
   2.000   0.1426   0.03172   0.01004   0.0089  1.0000  1.0000  -0.6150   0.0000   0.0000   0.0000   0.1841
   2.500   0.1759   0.03248   0.01142   0.0108  1.0000  1.0000  -0.7471   0.0000   0.0000   0.0000   0.1854
   3.000   0.2072   0.03356   0.01302   0.0122  1.0000  1.0000  -0.8862   0.0000   0.0000   0.0000   0.1874
   3.500   0.2354   0.03509   0.01513   0.0131  1.0000  1.0000  -1.0432   0.0000   0.0000   0.0000   0.1904
   4.000   0.2593   0.03724   0.01788   0.0131  1.0000  1.0000  -1.1825   0.0000   0.0000   0.0000   0.1952
   4.500   0.3399   0.04185   0.02381  -0.0005  0.9388  1.0000  -1.4319   0.0000   0.0000   0.0000   0.2473
   5.000   0.5532   0.04475   0.02913  -0.0070  0.5033  1.0000  -2.1880   0.0000   0.0000   0.0000   0.2596
   5.500   0.5875   0.04924   0.03293   0.0016  0.3638  1.0000  -2.3380   0.0000   0.0000   0.0000   0.2441
   6.000   0.6226   0.05497   0.03850   0.0055  0.2902  1.0000  -2.4501   0.0000   0.0000   0.0000   0.2377
   6.500   0.6514   0.06202   0.04636   0.0061  0.2478  1.0000  -2.4978   0.0000   0.0000   0.0000   0.2369
   7.000   0.6746   0.06992   0.05476   0.0059  0.2231  1.0000  -2.5753   0.0000   0.0000   0.0000   0.2374
   7.500   0.6828   0.07891   0.06422   0.0035  0.2077  1.0000  -2.5605   0.0000   0.0000   0.0000   0.2408
   8.000   0.6914   0.08826   0.07380   0.0011  0.2005  1.0000  -2.5432   0.0000   0.0000   0.0000   0.2441
   8.500   0.6933   0.09808   0.08366  -0.0025  0.1960  1.0000  -2.4890   0.0000   0.0000   0.0000   0.2490
   9.000   0.6848   0.10804   0.09353  -0.0077  0.1938  1.0000  -2.3782   0.0000   0.0000   0.0000   0.2564
   9.500   0.6770   0.11743   0.10276  -0.0126  0.1912  1.0000  -2.2814   0.0000   0.0000   0.0000   0.2634
  10.000   0.6739   0.12636   0.11154  -0.0166  0.1877  1.0000  -2.2093   0.0000   0.0000   0.0000   0.2690


