xflr5 v6.62

 Calculated polar for: NACA 0008

 1 1 Reynolds number fixed          Mach number fixed         

 xtrf =   1.000 (top)        1.000 (bottom)
 Mach =   0.000     Re =     0.020 e 6     Ncrit =   5.000

  alpha     CL        CD       CDp       Cm    Top Xtr Bot Xtr   Cpmin    Chinge    XCp    
 ------- -------- --------- --------- -------- ------- ------- -------- --------- ---------
  -5.000  -0.5321   0.03386   0.01928  -0.0071  1.0000  0.3068  -2.3430   0.0000   0.0000   0.0000   0.2333
  -4.500  -0.5043   0.03030   0.01720   0.0007  1.0000  0.5025  -2.1507   0.0000   0.0000   0.0000   0.2483
  -4.000  -0.4513   0.02985   0.01720   0.0120  1.0000  0.7590  -1.8071   0.0000   0.0000   0.0000   0.2736
  -3.500  -0.2772   0.02916   0.01431  -0.0044  1.0000  0.9623  -1.1698   0.0000   0.0000   0.0000   0.2304
  -3.000  -0.2031   0.02701   0.01134  -0.0128  1.0000  1.0000  -0.9042   0.0000   0.0000   0.0000   0.1833
  -2.500  -0.1727   0.02581   0.00974  -0.0116  1.0000  1.0000  -0.7569   0.0000   0.0000   0.0000   0.1793
  -2.000  -0.1398   0.02499   0.00844  -0.0098  1.0000  1.0000  -0.6201   0.0000   0.0000   0.0000   0.1763
  -1.500  -0.1054   0.02444   0.00760  -0.0077  1.0000  1.0000  -0.5043   0.0000   0.0000   0.0000   0.1736
  -1.000  -0.0703   0.02410   0.00704  -0.0053  1.0000  1.0000  -0.4101   0.0000   0.0000   0.0000   0.1710
  -0.500  -0.0351   0.02390   0.00672  -0.0027  1.0000  1.0000  -0.3365   0.0000   0.0000   0.0000   0.1687
   0.000  -0.0000   0.02384   0.00664   0.0000  1.0000  1.0000  -0.2813   0.0000   0.0000   0.0000   0.4139
   0.500   0.0351   0.02390   0.00672   0.0027  1.0000  1.0000  -0.3365   0.0000   0.0000   0.0000   0.1687
   1.000   0.0703   0.02409   0.00704   0.0053  1.0000  1.0000  -0.4101   0.0000   0.0000   0.0000   0.1711
   1.500   0.1054   0.02444   0.00759   0.0077  1.0000  1.0000  -0.5043   0.0000   0.0000   0.0000   0.1737
   2.000   0.1398   0.02499   0.00843   0.0098  1.0000  1.0000  -0.6201   0.0000   0.0000   0.0000   0.1763
   2.500   0.1728   0.02580   0.00973   0.0116  1.0000  1.0000  -0.7571   0.0000   0.0000   0.0000   0.1794
   3.000   0.2033   0.02700   0.01133   0.0128  1.0000  1.0000  -0.9045   0.0000   0.0000   0.0000   0.1835
   3.500   0.2773   0.02915   0.01430   0.0044  0.9624  1.0000  -1.1701   0.0000   0.0000   0.0000   0.2304
   4.000   0.4513   0.02985   0.01719  -0.0120  0.7590  1.0000  -1.8073   0.0000   0.0000   0.0000   0.2736
   4.500   0.5043   0.03030   0.01719  -0.0007  0.5025  1.0000  -2.1508   0.0000   0.0000   0.0000   0.2483
   5.000   0.5322   0.03386   0.01928   0.0071  0.3068  1.0000  -2.3430   0.0000   0.0000   0.0000   0.2333
   5.500   0.5705   0.03830   0.02319   0.0102  0.2145  1.0000  -2.5138   0.0000   0.0000   0.0000   0.2285
   6.000   0.6138   0.04321   0.02861   0.0118  0.1673  1.0000  -2.6617   0.0000   0.0000   0.0000   0.2268
   6.500   0.6563   0.04900   0.03507   0.0128  0.1415  1.0000  -2.8788   0.0000   0.0000   0.0000   0.2264
   7.000   0.6914   0.05628   0.04335   0.0128  0.1260  1.0000  -2.9973   0.0000   0.0000   0.0000   0.2272
   7.500   0.7190   0.06437   0.05202   0.0129  0.1189  1.0000  -3.0861   0.0000   0.0000   0.0000   0.2276
   8.000   0.7209   0.07434   0.06282   0.0105  0.1145  1.0000  -2.9834   0.0000   0.0000   0.0000   0.2308
   8.500   0.7136   0.08440   0.07322   0.0069  0.1111  1.0000  -2.8658   0.0000   0.0000   0.0000   0.2355
   9.000   0.7018   0.09454   0.08341   0.0023  0.1093  1.0000  -2.7316   0.0000   0.0000   0.0000   0.2416
   9.500   0.6899   0.10526   0.09403  -0.0041  0.1091  1.0000  -2.5779   0.0000   0.0000   0.0000   0.2505
  10.000   0.6833   0.11582   0.10445  -0.0102  0.1098  1.0000  -2.4396   0.0000   0.0000   0.0000   0.2591


