xflr5 v6.62

 Calculated polar for: NACA 0008

 1 1 Reynolds number fixed          Mach number fixed         

 xtrf =   1.000 (top)        1.000 (bottom)
 Mach =   0.000     Re =     0.016 e 6     Ncrit =   9.000

  alpha     CL        CD       CDp       Cm    Top Xtr Bot Xtr   Cpmin    Chinge    XCp    
 ------- -------- --------- --------- -------- ------- ------- -------- --------- ---------
  -5.000  -0.5772   0.05054   0.03811   0.0281  1.0000  0.5912  -1.9976   0.0000   0.0000   0.0000   0.2958
  -4.000  -0.2551   0.03365   0.01705  -0.0126  1.0000  1.0000  -1.1869   0.0000   0.0000   0.0000   0.1963
  -3.500  -0.2324   0.03128   0.01415  -0.0132  1.0000  1.0000  -1.0530   0.0000   0.0000   0.0000   0.1893
  -3.000  -0.2051   0.02964   0.01201  -0.0126  1.0000  1.0000  -0.8979   0.0000   0.0000   0.0000   0.1849
  -2.500  -0.1743   0.02850   0.01041  -0.0112  1.0000  1.0000  -0.7536   0.0000   0.0000   0.0000   0.1820
  -2.000  -0.1411   0.02771   0.00909  -0.0094  1.0000  1.0000  -0.6185   0.0000   0.0000   0.0000   0.1798
  -1.500  -0.1066   0.02718   0.00823  -0.0073  1.0000  1.0000  -0.5038   0.0000   0.0000   0.0000   0.1780
  -1.000  -0.0712   0.02683   0.00764  -0.0050  1.0000  1.0000  -0.4100   0.0000   0.0000   0.0000   0.1760
  -0.500  -0.0356   0.02664   0.00732  -0.0026  1.0000  1.0000  -0.3369   0.0000   0.0000   0.0000   0.1747
   0.000  -0.0000   0.02658   0.00723   0.0000  1.0000  1.0000  -0.2817   0.0000   0.0000   0.0000   0.4109
   0.500   0.0356   0.02664   0.00732   0.0026  1.0000  1.0000  -0.3369   0.0000   0.0000   0.0000   0.1748
   1.000   0.0712   0.02683   0.00764   0.0050  1.0000  1.0000  -0.4100   0.0000   0.0000   0.0000   0.1760
   1.500   0.1066   0.02717   0.00822   0.0073  1.0000  1.0000  -0.5038   0.0000   0.0000   0.0000   0.1780
   2.000   0.1412   0.02770   0.00908   0.0094  1.0000  1.0000  -0.6185   0.0000   0.0000   0.0000   0.1799
   2.500   0.1744   0.02849   0.01041   0.0112  1.0000  1.0000  -0.7538   0.0000   0.0000   0.0000   0.1821
   3.000   0.2052   0.02963   0.01200   0.0126  1.0000  1.0000  -0.8982   0.0000   0.0000   0.0000   0.1850
   3.500   0.2326   0.03127   0.01414   0.0131  1.0000  1.0000  -1.0535   0.0000   0.0000   0.0000   0.1894
   4.000   0.2554   0.03364   0.01703   0.0125  1.0000  1.0000  -1.1877   0.0000   0.0000   0.0000   0.1965
   4.500   0.2725   0.03703   0.02093   0.0103  1.0000  1.0000  -1.2874   0.0000   0.0000   0.0000   0.2075
   5.000   0.2838   0.04167   0.02601   0.0061  1.0000  1.0000  -1.3410   0.0000   0.0000   0.0000   0.2230
   5.500   0.6079   0.05698   0.04463  -0.0212  0.4895  1.0000  -2.0436   0.0000   0.0000   0.0000   0.2819
   6.000   0.6289   0.06519   0.05293  -0.0201  0.4425  1.0000  -2.0377   0.0000   0.0000   0.0000   0.2789
   6.500   0.6433   0.07425   0.06204  -0.0214  0.4181  1.0000  -2.0033   0.0000   0.0000   0.0000   0.2800
   7.000   0.6393   0.08385   0.07157  -0.0259  0.4155  1.0000  -1.9154   0.0000   0.0000   0.0000   0.2869
   7.500   0.6243   0.09329   0.08081  -0.0319  0.4337  1.0000  -1.8009   0.0000   0.0000   0.0000   0.2971
   8.000   0.6106   0.10247   0.08977  -0.0377  0.4690  1.0000  -1.6918   0.0000   0.0000   0.0000   0.3073
   8.500   0.5845   0.11061   0.09767  -0.0457  0.5539  1.0000  -1.5577   0.0000   0.0000   0.0000   0.3231
   9.000   0.3858   0.09640   0.08238  -0.0287  1.0000  1.0000  -1.2865   0.0000   0.0000   0.0000   0.3167
   9.500   0.4029   0.10372   0.08977  -0.0318  1.0000  1.0000  -1.2671   0.0000   0.0000   0.0000   0.3208
  10.000   0.4202   0.11108   0.09720  -0.0347  1.0000  1.0000  -1.2449   0.0000   0.0000   0.0000   0.3243


