xflr5 v6.62

 Calculated polar for: NACA 0008

 1 1 Reynolds number fixed          Mach number fixed         

 xtrf =   1.000 (top)        1.000 (bottom)
 Mach =   0.000     Re =     0.012 e 6     Ncrit =   9.000

  alpha     CL        CD       CDp       Cm    Top Xtr Bot Xtr   Cpmin    Chinge    XCp    
 ------- -------- --------- --------- -------- ------- ------- -------- --------- ---------
  -4.500  -0.2776   0.04030   0.02152  -0.0117  1.0000  1.0000  -1.2918   0.0000   0.0000   0.0000   0.2030
  -4.000  -0.2591   0.03726   0.01790  -0.0131  1.0000  1.0000  -1.1818   0.0000   0.0000   0.0000   0.1950
  -3.500  -0.2352   0.03510   0.01514  -0.0131  1.0000  1.0000  -1.0427   0.0000   0.0000   0.0000   0.1902
  -3.000  -0.2071   0.03357   0.01303  -0.0122  1.0000  1.0000  -0.8860   0.0000   0.0000   0.0000   0.1873
  -2.500  -0.1758   0.03248   0.01142  -0.0108  1.0000  1.0000  -0.7469   0.0000   0.0000   0.0000   0.1853
  -2.000  -0.1425   0.03172   0.01004  -0.0089  1.0000  1.0000  -0.6149   0.0000   0.0000   0.0000   0.1840
  -1.500  -0.1077   0.03120   0.00914  -0.0069  1.0000  1.0000  -0.5021   0.0000   0.0000   0.0000   0.1828
  -1.000  -0.0722   0.03087   0.00853  -0.0047  1.0000  1.0000  -0.4094   0.0000   0.0000   0.0000   0.1818
  -0.500  -0.0362   0.03068   0.00818  -0.0024  1.0000  1.0000  -0.3371   0.0000   0.0000   0.0000   0.1814
   0.000  -0.0000   0.03061   0.00809   0.0000  1.0000  1.0000  -0.2822   0.0000   0.0000   0.0000   0.4082
   0.500   0.0362   0.03068   0.00818   0.0024  1.0000  1.0000  -0.3371   0.0000   0.0000   0.0000   0.1814
   1.000   0.0722   0.03087   0.00853   0.0047  1.0000  1.0000  -0.4095   0.0000   0.0000   0.0000   0.1818
   1.500   0.1078   0.03120   0.00914   0.0069  1.0000  1.0000  -0.5022   0.0000   0.0000   0.0000   0.1829
   2.000   0.1426   0.03172   0.01004   0.0089  1.0000  1.0000  -0.6150   0.0000   0.0000   0.0000   0.1841
   2.500   0.1759   0.03248   0.01142   0.0108  1.0000  1.0000  -0.7471   0.0000   0.0000   0.0000   0.1854
   3.000   0.2072   0.03356   0.01302   0.0122  1.0000  1.0000  -0.8862   0.0000   0.0000   0.0000   0.1874
   3.500   0.2354   0.03509   0.01513   0.0131  1.0000  1.0000  -1.0432   0.0000   0.0000   0.0000   0.1904
   4.000   0.2593   0.03724   0.01788   0.0131  1.0000  1.0000  -1.1825   0.0000   0.0000   0.0000   0.1952
   4.500   0.2779   0.04028   0.02151   0.0117  1.0000  1.0000  -1.2928   0.0000   0.0000   0.0000   0.2032
   5.000   0.2908   0.04445   0.02618   0.0086  1.0000  1.0000  -1.3620   0.0000   0.0000   0.0000   0.2153
   5.500   0.2994   0.04976   0.03191   0.0040  1.0000  1.0000  -1.4005   0.0000   0.0000   0.0000   0.2310
   6.000   0.3069   0.05592   0.03838  -0.0012  1.0000  1.0000  -1.4102   0.0000   0.0000   0.0000   0.2479
   6.500   0.5344   0.07984   0.06471  -0.0415  0.6766  1.0000  -1.7302   0.0000   0.0000   0.0000   0.3234
   7.000   0.5498   0.08801   0.07293  -0.0422  0.6374  1.0000  -1.7120   0.0000   0.0000   0.0000   0.3224
   7.500   0.5673   0.09709   0.08203  -0.0446  0.6222  1.0000  -1.6876   0.0000   0.0000   0.0000   0.3241
   8.000   0.5543   0.10359   0.08837  -0.0460  0.6408  1.0000  -1.6167   0.0000   0.0000   0.0000   0.3278
   8.500   0.5387   0.10986   0.09447  -0.0487  0.6975  1.0000  -1.5379   0.0000   0.0000   0.0000   0.3347
   9.000   0.4778   0.11021   0.09442  -0.0462  0.8694  1.0000  -1.4182   0.0000   0.0000   0.0000   0.3397
   9.500   0.4013   0.10474   0.08845  -0.0289  1.0000  1.0000  -1.3265   0.0000   0.0000   0.0000   0.3138
  10.000   0.4182   0.11199   0.09578  -0.0319  1.0000  1.0000  -1.3063   0.0000   0.0000   0.0000   0.3179


