xflr5 v6.62

 Calculated polar for: NACA 0008

 1 1 Reynolds number fixed          Mach number fixed         

 xtrf =   1.000 (top)        1.000 (bottom)
 Mach =   0.000     Re =     0.016 e 6     Ncrit =   5.000

  alpha     CL        CD       CDp       Cm    Top Xtr Bot Xtr   Cpmin    Chinge    XCp    
 ------- -------- --------- --------- -------- ------- ------- -------- --------- ---------
  -5.000  -0.5417   0.03773   0.02274  -0.0037  1.0000  0.3791  -2.2892   0.0000   0.0000   0.0000   0.2399
  -4.500  -0.5111   0.03471   0.02097   0.0076  1.0000  0.5948  -2.0882   0.0000   0.0000   0.0000   0.2618
  -4.000  -0.3406   0.03464   0.01890   0.0026  1.0000  0.9219  -1.3917   0.0000   0.0000   0.0000   0.2538
  -3.500  -0.2324   0.03128   0.01415  -0.0132  1.0000  1.0000  -1.0530   0.0000   0.0000   0.0000   0.1893
  -3.000  -0.2051   0.02964   0.01201  -0.0126  1.0000  1.0000  -0.8979   0.0000   0.0000   0.0000   0.1849
  -2.500  -0.1743   0.02850   0.01041  -0.0112  1.0000  1.0000  -0.7536   0.0000   0.0000   0.0000   0.1820
  -2.000  -0.1411   0.02771   0.00909  -0.0094  1.0000  1.0000  -0.6185   0.0000   0.0000   0.0000   0.1798
  -1.500  -0.1066   0.02718   0.00823  -0.0073  1.0000  1.0000  -0.5038   0.0000   0.0000   0.0000   0.1780
  -1.000  -0.0712   0.02683   0.00764  -0.0050  1.0000  1.0000  -0.4100   0.0000   0.0000   0.0000   0.1760
  -0.500  -0.0356   0.02664   0.00732  -0.0026  1.0000  1.0000  -0.3369   0.0000   0.0000   0.0000   0.1747
   0.000  -0.0000   0.02658   0.00723   0.0000  1.0000  1.0000  -0.2817   0.0000   0.0000   0.0000   0.4109
   0.500   0.0356   0.02664   0.00732   0.0026  1.0000  1.0000  -0.3369   0.0000   0.0000   0.0000   0.1748
   1.000   0.0712   0.02683   0.00764   0.0050  1.0000  1.0000  -0.4100   0.0000   0.0000   0.0000   0.1760
   1.500   0.1066   0.02717   0.00822   0.0073  1.0000  1.0000  -0.5038   0.0000   0.0000   0.0000   0.1780
   2.000   0.1412   0.02770   0.00908   0.0094  1.0000  1.0000  -0.6185   0.0000   0.0000   0.0000   0.1799
   2.500   0.1744   0.02849   0.01041   0.0112  1.0000  1.0000  -0.7538   0.0000   0.0000   0.0000   0.1821
   3.000   0.2052   0.02963   0.01200   0.0126  1.0000  1.0000  -0.8982   0.0000   0.0000   0.0000   0.1850
   3.500   0.2326   0.03127   0.01414   0.0131  1.0000  1.0000  -1.0535   0.0000   0.0000   0.0000   0.1894
   4.000   0.3408   0.03463   0.01889  -0.0026  0.9219  1.0000  -1.3923   0.0000   0.0000   0.0000   0.2539
   4.500   0.5111   0.03471   0.02097  -0.0076  0.5947  1.0000  -2.0883   0.0000   0.0000   0.0000   0.2618
   5.000   0.5417   0.03773   0.02273   0.0037  0.3790  1.0000  -2.2893   0.0000   0.0000   0.0000   0.2399
   5.500   0.5769   0.04236   0.02665   0.0085  0.2692  1.0000  -2.4453   0.0000   0.0000   0.0000   0.2317
   6.000   0.6172   0.04789   0.03241   0.0105  0.2133  1.0000  -2.5656   0.0000   0.0000   0.0000   0.2293
   6.500   0.6542   0.05388   0.03907   0.0118  0.1787  1.0000  -2.7329   0.0000   0.0000   0.0000   0.2279
   7.000   0.6831   0.06177   0.04795   0.0113  0.1623  1.0000  -2.8065   0.0000   0.0000   0.0000   0.2293
   7.500   0.7003   0.07027   0.05711   0.0099  0.1481  1.0000  -2.8383   0.0000   0.0000   0.0000   0.2315
   8.000   0.7075   0.07984   0.06716   0.0074  0.1429  1.0000  -2.7960   0.0000   0.0000   0.0000   0.2351
   8.500   0.7043   0.09011   0.07766   0.0034  0.1420  1.0000  -2.6937   0.0000   0.0000   0.0000   0.2404
   9.000   0.6932   0.10070   0.08824  -0.0020  0.1432  1.0000  -2.5471   0.0000   0.0000   0.0000   0.2479
   9.500   0.6829   0.11125   0.09864  -0.0082  0.1452  1.0000  -2.4041   0.0000   0.0000   0.0000   0.2567
  10.000   0.6788   0.12107   0.10832  -0.0133  0.1459  1.0000  -2.3009   0.0000   0.0000   0.0000   0.2639


