xflr5 v6.62

 Calculated polar for: NACA 0008

 1 1 Reynolds number fixed          Mach number fixed         

 xtrf =   1.000 (top)        1.000 (bottom)
 Mach =   0.000     Re =     0.020 e 6     Ncrit =   9.000

  alpha     CL        CD       CDp       Cm    Top Xtr Bot Xtr   Cpmin    Chinge    XCp    
 ------- -------- --------- --------- -------- ------- ------- -------- --------- ---------
  -5.000  -0.5824   0.04185   0.02986   0.0071  1.0000  0.4423  -2.1465   0.0000   0.0000   0.0000   0.2593
  -4.500  -0.5481   0.03798   0.02659   0.0215  1.0000  0.6133  -2.0296   0.0000   0.0000   0.0000   0.2865
  -4.000  -0.2517   0.03135   0.01660  -0.0119  1.0000  1.0000  -1.1858   0.0000   0.0000   0.0000   0.1984
  -3.500  -0.2299   0.02877   0.01355  -0.0130  1.0000  1.0000  -1.0571   0.0000   0.0000   0.0000   0.1892
  -3.000  -0.2031   0.02701   0.01134  -0.0128  1.0000  1.0000  -0.9042   0.0000   0.0000   0.0000   0.1833
  -2.500  -0.1727   0.02581   0.00974  -0.0116  1.0000  1.0000  -0.7569   0.0000   0.0000   0.0000   0.1793
  -2.000  -0.1398   0.02499   0.00844  -0.0098  1.0000  1.0000  -0.6201   0.0000   0.0000   0.0000   0.1763
  -1.500  -0.1054   0.02444   0.00760  -0.0077  1.0000  1.0000  -0.5043   0.0000   0.0000   0.0000   0.1736
  -1.000  -0.0703   0.02410   0.00704  -0.0053  1.0000  1.0000  -0.4101   0.0000   0.0000   0.0000   0.1710
  -0.500  -0.0351   0.02390   0.00672  -0.0027  1.0000  1.0000  -0.3365   0.0000   0.0000   0.0000   0.1687
   0.000  -0.0000   0.02384   0.00664   0.0000  1.0000  1.0000  -0.2813   0.0000   0.0000   0.0000   0.4139
   0.500   0.0351   0.02390   0.00672   0.0027  1.0000  1.0000  -0.3365   0.0000   0.0000   0.0000   0.1687
   1.000   0.0703   0.02409   0.00704   0.0053  1.0000  1.0000  -0.4101   0.0000   0.0000   0.0000   0.1711
   1.500   0.1054   0.02444   0.00759   0.0077  1.0000  1.0000  -0.5043   0.0000   0.0000   0.0000   0.1737
   2.000   0.1398   0.02499   0.00843   0.0098  1.0000  1.0000  -0.6201   0.0000   0.0000   0.0000   0.1763
   2.500   0.1728   0.02580   0.00973   0.0116  1.0000  1.0000  -0.7571   0.0000   0.0000   0.0000   0.1794
   3.000   0.2033   0.02700   0.01133   0.0128  1.0000  1.0000  -0.9045   0.0000   0.0000   0.0000   0.1835
   3.500   0.2301   0.02876   0.01354   0.0130  1.0000  1.0000  -1.0577   0.0000   0.0000   0.0000   0.1894
   4.000   0.2520   0.03134   0.01659   0.0118  1.0000  1.0000  -1.1866   0.0000   0.0000   0.0000   0.1986
   4.500   0.2679   0.03505   0.02075   0.0088  1.0000  1.0000  -1.2767   0.0000   0.0000   0.0000   0.2124
   5.000   0.5824   0.04185   0.02986  -0.0071  0.4423  1.0000  -2.1465   0.0000   0.0000   0.0000   0.2593
   5.500   0.6192   0.04806   0.03610  -0.0024  0.3641  1.0000  -2.2124   0.0000   0.0000   0.0000   0.2510
   6.000   0.6489   0.05664   0.04526  -0.0036  0.3301  1.0000  -2.1979   0.0000   0.0000   0.0000   0.2525
   6.500   0.6726   0.06586   0.05477  -0.0048  0.3128  1.0000  -2.2097   0.0000   0.0000   0.0000   0.2540
   7.000   0.6751   0.07641   0.06554  -0.0099  0.3107  1.0000  -2.1381   0.0000   0.0000   0.0000   0.2613
   7.500   0.6587   0.08789   0.07698  -0.0191  0.3295  1.0000  -1.9773   0.0000   0.0000   0.0000   0.2753
   8.000   0.6442   0.09880   0.08770  -0.0274  0.3603  1.0000  -1.8408   0.0000   0.0000   0.0000   0.2884
   8.500   0.6081   0.10920   0.09782  -0.0405  0.4629  1.0000  -1.6119   0.0000   0.0000   0.0000   0.3118
   9.000   0.4806   0.10824   0.09629  -0.0509  0.8597  1.0000  -1.3044   0.0000   0.0000   0.0000   0.3490
   9.500   0.5105   0.11766   0.10580  -0.0543  0.8125  1.0000  -1.2879   0.0000   0.0000   0.0000   0.3495
  10.000   0.5443   0.12761   0.11585  -0.0571  0.7516  1.0000  -1.3255   0.0000   0.0000   0.0000   0.3479


