xflr5 v6.62

MW_AG36_b360c60_AR6_v1
T1-7.0 m/s-VLM2-0.0kg-x0.0m
QInf  =    7.000000 m/s
Alpha =    3.000000
Beta  =    0.000°
Phi   =    0.000°
Ctrl  =    0.000
CL    =    0.477413
Cy    =    0.000000
Cd    =    0.045414     ICd   =    0.012035     PCd   =    0.033379
Cl   =  2.6655e-16
Cm   =   -0.162382
ICn   =   -0.000000     PCn   =   -0.000000 
XCP   =    0.020361     YCP   =   -0.000000     ZCP   =    0.001977  
XNP   =    0.000000
Bending =    0.011365

Main Wing
  y-span        Chord      Ai         Cl        PCd          ICd        CmGeom    CmAirf@chord/4    XTrtop    XTrBot      XCP       BM
   -0.1797     0.0600    -2.865    0.075488    0.022069    0.003778   -0.026892   -0.008094     1.0000    1.0000    0.3565    0.0000
   -0.1785     0.0600    -2.825    0.129642    0.023416    0.006398   -0.046195   -0.013811     1.0000    1.0000    0.3558    0.0000
   -0.1760     0.0600    -2.718    0.185550    0.025382    0.008809   -0.065892   -0.019485     0.9938    1.0000    0.3543    0.0000
   -0.1724     0.0600    -2.584    0.238673    0.027543    0.010770   -0.084362   -0.024634     0.9825    1.0000    0.3525    0.0000
   -0.1675     0.0600    -2.433    0.287746    0.029156    0.012228   -0.101197   -0.029160     0.9641    1.0000    0.3507    0.0000
   -0.1616     0.0600    -2.275    0.332139    0.030348    0.013193   -0.116209   -0.033035     0.9443    1.0000    0.3488    0.0001
   -0.1545     0.0600    -2.114    0.371586    0.031251    0.013719   -0.129340   -0.036270     0.9252    1.0000    0.3469    0.0001
   -0.1464     0.0600    -1.959    0.406101    0.031975    0.013889   -0.140637   -0.038906     0.9075    1.0000    0.3451    0.0003
   -0.1372     0.0600    -1.813    0.435900    0.032598    0.013794   -0.150220   -0.041013     0.8920    1.0000    0.3434    0.0005
   -0.1272     0.0600    -1.679    0.461325    0.033126    0.013522   -0.158257   -0.042671     0.8782    1.0000    0.3418    0.0007
   -0.1162     0.0600    -1.560    0.482783    0.033562    0.013147   -0.164931   -0.043961     0.8653    1.0000    0.3404    0.0012
   -0.1045     0.0600    -1.456    0.500694    0.033924    0.012728   -0.170421   -0.044957     0.8542    1.0000    0.3391    0.0017
   -0.0921     0.0600    -1.368    0.515459    0.034229    0.012306   -0.174889   -0.045720     0.8446    1.0000    0.3380    0.0024
   -0.0790     0.0600    -1.294    0.527442    0.034478    0.011911   -0.178476   -0.046301     0.8367    1.0000    0.3371    0.0034
   -0.0654     0.0600    -1.234    0.536955    0.034676    0.011563   -0.181299   -0.046736     0.8305    1.0000    0.3364    0.0045
   -0.0513     0.0600    -1.187    0.544259    0.034827    0.011274   -0.183450   -0.047055     0.8257    1.0000    0.3358    0.0059
   -0.0369     0.0600    -1.152    0.549560    0.034937    0.011053   -0.185003   -0.047277     0.8222    1.0000    0.3354    0.0075
   -0.0222     0.0600    -1.130    0.553010    0.035009    0.010904   -0.186009   -0.047419     0.8199    1.0000    0.3351    0.0093
   -0.0074     0.0600    -1.118    0.554710    0.035044    0.010829   -0.186504   -0.047487     0.8188    1.0000    0.3349    0.0114
    0.0074     0.0600    -1.118    0.554710    0.035044    0.010829   -0.186504   -0.047487     0.8188    1.0000    0.3349    0.0114
    0.0222     0.0600    -1.130    0.553010    0.035009    0.010904   -0.186009   -0.047419     0.8199    1.0000    0.3351    0.0093
    0.0369     0.0600    -1.152    0.549560    0.034937    0.011053   -0.185003   -0.047277     0.8222    1.0000    0.3354    0.0075
    0.0513     0.0600    -1.187    0.544259    0.034827    0.011274   -0.183450   -0.047055     0.8257    1.0000    0.3358    0.0059
    0.0654     0.0600    -1.234    0.536955    0.034676    0.011563   -0.181299   -0.046736     0.8305    1.0000    0.3364    0.0045
    0.0790     0.0600    -1.294    0.527442    0.034478    0.011911   -0.178476   -0.046301     0.8367    1.0000    0.3371    0.0034
    0.0921     0.0600    -1.368    0.515459    0.034229    0.012306   -0.174889   -0.045720     0.8446    1.0000    0.3380    0.0024
    0.1045     0.0600    -1.456    0.500694    0.033924    0.012728   -0.170421   -0.044957     0.8542    1.0000    0.3391    0.0017
    0.1162     0.0600    -1.560    0.482783    0.033562    0.013147   -0.164931   -0.043961     0.8653    1.0000    0.3404    0.0012
    0.1272     0.0600    -1.679    0.461325    0.033126    0.013522   -0.158257   -0.042671     0.8782    1.0000    0.3418    0.0007
    0.1372     0.0600    -1.813    0.435900    0.032598    0.013794   -0.150220   -0.041013     0.8920    1.0000    0.3434    0.0005
    0.1464     0.0600    -1.959    0.406101    0.031975    0.013889   -0.140637   -0.038906     0.9075    1.0000    0.3451    0.0003
    0.1545     0.0600    -2.114    0.371586    0.031251    0.013719   -0.129340   -0.036270     0.9252    1.0000    0.3469    0.0001
    0.1616     0.0600    -2.275    0.332139    0.030348    0.013193   -0.116209   -0.033035     0.9443    1.0000    0.3488    0.0001
    0.1675     0.0600    -2.433    0.287746    0.029156    0.012228   -0.101197   -0.029160     0.9641    1.0000    0.3507    0.0000
    0.1724     0.0600    -2.584    0.238673    0.027543    0.010770   -0.084362   -0.024634     0.9825    1.0000    0.3525    0.0000
    0.1760     0.0600    -2.718    0.185550    0.025382    0.008809   -0.065892   -0.019485     0.9938    1.0000    0.3543    0.0000
    0.1785     0.0600    -2.825    0.129642    0.023416    0.006398   -0.046195   -0.013811     1.0000    1.0000    0.3558    0.0000
    0.1797     0.0600    -2.865    0.075488    0.022069    0.003778   -0.026892   -0.008094     1.0000    1.0000    0.3565    0.0000


Main Wing Cp Coefficients
 Panel     CtrlPt.x        CtrlPt.y        CtrlPt.z       Nx      Ny       Nz        Area       Cp
Main WingCp Coefficients
Strip 1
   0       5.978e-02      -1.797e-01       9.772e-05           0.080           0.000           0.997       5.377e-07          0.0120
   1       5.849e-02      -1.797e-01       2.021e-04           0.080           0.000           0.997       1.582e-06          0.0209
   2       5.554e-02      -1.797e-01       4.382e-04           0.079           0.000           0.997       2.534e-06          0.0362
   3       5.110e-02      -1.797e-01       7.762e-04           0.070           0.000           0.998       3.336e-06          0.0323
   4       4.544e-02      -1.797e-01       1.171e-03           0.070           0.000           0.998       3.947e-06          0.0553
   5       3.888e-02      -1.797e-01       1.599e-03           0.053           0.000           0.999       4.323e-06          0.0518
   6       3.181e-02      -1.797e-01       1.967e-03           0.049           0.000           0.999       4.452e-06          0.0763
   7       2.463e-02      -1.797e-01       2.281e-03           0.028           0.000           1.000       4.319e-06          0.0948
   8       1.776e-02      -1.797e-01       2.432e-03           0.001           0.000           1.000       3.937e-06          0.1068
   9       1.160e-02      -1.797e-01       2.398e-03          -0.028           0.000           1.000       3.329e-06          0.1251
  10       6.518e-03      -1.797e-01       2.217e-03          -0.065           0.000           0.998       2.531e-06          0.1469
  11       2.795e-03      -1.797e-01       1.938e-03          -0.120           0.000           0.993       1.588e-06          0.0910
  12       6.538e-04      -1.797e-01       1.673e-03          -0.143           0.000           0.990       5.415e-07          0.0022
Strip 2
  13       5.978e-02      -1.785e-01       9.772e-05           0.080           0.000           0.997       1.609e-06          0.0189
  14       5.849e-02      -1.785e-01       2.021e-04           0.080           0.000           0.997       4.735e-06          0.0355
  15       5.554e-02      -1.785e-01       4.382e-04           0.079           0.000           0.997       7.584e-06          0.0610
  16       5.110e-02      -1.785e-01       7.762e-04           0.070           0.000           0.998       9.986e-06          0.0562
  17       4.544e-02      -1.785e-01       1.171e-03           0.070           0.000           0.998       1.181e-05          0.0946
  18       3.888e-02      -1.785e-01       1.599e-03           0.053           0.000           0.999       1.294e-05          0.0898
  19       3.181e-02      -1.785e-01       1.967e-03           0.049           0.000           0.999       1.332e-05          0.1312
  20       2.463e-02      -1.785e-01       2.281e-03           0.028           0.000           1.000       1.293e-05          0.1626
  21       1.776e-02      -1.785e-01       2.432e-03           0.001           0.000           1.000       1.178e-05          0.1830
  22       1.160e-02      -1.785e-01       2.398e-03          -0.028           0.000           1.000       9.966e-06          0.2134
  23       6.518e-03      -1.785e-01       2.217e-03          -0.065           0.000           0.998       7.576e-06          0.2452
  24       2.795e-03      -1.785e-01       1.938e-03          -0.120           0.000           0.993       4.754e-06          0.1533
  25       6.538e-04      -1.785e-01       1.673e-03          -0.143           0.000           0.990       1.621e-06          0.0567
Strip 3
  26       5.978e-02      -1.760e-01       9.772e-05           0.080           0.000           0.997       2.670e-06          0.0258
  27       5.849e-02      -1.760e-01       2.021e-04           0.080           0.000           0.997       7.855e-06          0.0496
  28       5.554e-02      -1.760e-01       4.382e-04           0.079           0.000           0.997       1.258e-05          0.0839
  29       5.110e-02      -1.760e-01       7.762e-04           0.070           0.000           0.998       1.657e-05          0.0828
  30       4.544e-02      -1.760e-01       1.171e-03           0.070           0.000           0.998       1.960e-05          0.1334
  31       3.888e-02      -1.760e-01       1.599e-03           0.053           0.000           0.999       2.147e-05          0.1315
  32       3.181e-02      -1.760e-01       1.967e-03           0.049           0.000           0.999       2.211e-05          0.1877
  33       2.463e-02      -1.760e-01       2.281e-03           0.028           0.000           1.000       2.145e-05          0.2315
  34       1.776e-02      -1.760e-01       2.432e-03           0.001           0.000           1.000       1.955e-05          0.2607
  35       1.160e-02      -1.760e-01       2.398e-03          -0.028           0.000           1.000       1.653e-05          0.3001
  36       6.518e-03      -1.760e-01       2.217e-03          -0.065           0.000           0.998       1.257e-05          0.3326
  37       2.795e-03      -1.760e-01       1.938e-03          -0.120           0.000           0.993       7.887e-06          0.2284
  38       6.538e-04      -1.760e-01       1.673e-03          -0.143           0.000           0.990       2.689e-06          0.1890
Strip 4
  39       5.978e-02      -1.724e-01       9.772e-05           0.080           0.000           0.997       3.713e-06          0.0324
  40       5.849e-02      -1.724e-01       2.021e-04           0.080           0.000           0.997       1.092e-05          0.0623
  41       5.554e-02      -1.724e-01       4.382e-04           0.079           0.000           0.997       1.749e-05          0.1040
  42       5.110e-02      -1.724e-01       7.762e-04           0.070           0.000           0.998       2.304e-05          0.1094
  43       4.544e-02      -1.724e-01       1.171e-03           0.070           0.000           0.998       2.725e-05          0.1689
  44       3.888e-02      -1.724e-01       1.599e-03           0.053           0.000           0.999       2.985e-05          0.1734
  45       3.181e-02      -1.724e-01       1.967e-03           0.049           0.000           0.999       3.074e-05          0.2410
  46       2.463e-02      -1.724e-01       2.281e-03           0.028           0.000           1.000       2.982e-05          0.2952
  47       1.776e-02      -1.724e-01       2.432e-03           0.001           0.000           1.000       2.718e-05          0.3320
  48       1.160e-02      -1.724e-01       2.398e-03          -0.028           0.000           1.000       2.299e-05          0.3763
  49       6.518e-03      -1.724e-01       2.217e-03          -0.065           0.000           0.998       1.748e-05          0.4090
  50       2.795e-03      -1.724e-01       1.938e-03          -0.120           0.000           0.993       1.097e-05          0.3154
  51       6.538e-04      -1.724e-01       1.673e-03          -0.143           0.000           0.990       3.739e-06          0.3668
Strip 5
  52       5.978e-02      -1.675e-01       9.772e-05           0.080           0.000           0.997       4.730e-06          0.0387
  53       5.849e-02      -1.675e-01       2.021e-04           0.080           0.000           0.997       1.391e-05          0.0738
  54       5.554e-02      -1.675e-01       4.382e-04           0.079           0.000           0.997       2.229e-05          0.1219
  55       5.110e-02      -1.675e-01       7.762e-04           0.070           0.000           0.998       2.935e-05          0.1342
  56       4.544e-02      -1.675e-01       1.171e-03           0.070           0.000           0.998       3.472e-05          0.2014
  57       3.888e-02      -1.675e-01       1.599e-03           0.053           0.000           0.999       3.803e-05          0.2132
  58       3.181e-02      -1.675e-01       1.967e-03           0.049           0.000           0.999       3.916e-05          0.2896
  59       2.463e-02      -1.675e-01       2.281e-03           0.028           0.000           1.000       3.799e-05          0.3520
  60       1.776e-02      -1.675e-01       2.432e-03           0.001           0.000           1.000       3.463e-05          0.3946
  61       1.160e-02      -1.675e-01       2.398e-03          -0.028           0.000           1.000       2.929e-05          0.4423
  62       6.518e-03      -1.675e-01       2.217e-03          -0.065           0.000           0.998       2.226e-05          0.4795
  63       2.795e-03      -1.675e-01       1.938e-03          -0.120           0.000           0.993       1.397e-05          0.4075
  64       6.538e-04      -1.675e-01       1.673e-03          -0.143           0.000           0.990       4.763e-06          0.5661
Strip 6
  65       5.978e-02      -1.616e-01       9.772e-05           0.080           0.000           0.997       5.714e-06          0.0444
  66       5.849e-02      -1.616e-01       2.021e-04           0.080           0.000           0.997       1.681e-05          0.0842
  67       5.554e-02      -1.616e-01       4.382e-04           0.079           0.000           0.997       2.693e-05          0.1381
  68       5.110e-02      -1.616e-01       7.762e-04           0.070          -0.000           0.998       3.546e-05          0.1567
  69       4.544e-02      -1.616e-01       1.171e-03           0.070          -0.000           0.998       4.194e-05          0.2306
  70       3.888e-02      -1.616e-01       1.599e-03           0.053           0.000           0.999       4.595e-05          0.2493
  71       3.181e-02      -1.616e-01       1.967e-03           0.049           0.000           0.999       4.731e-05          0.3327
  72       2.463e-02      -1.616e-01       2.281e-03           0.028           0.000           1.000       4.590e-05          0.4012
  73       1.776e-02      -1.616e-01       2.432e-03           0.001           0.000           1.000       4.184e-05          0.4484
  74       1.160e-02      -1.616e-01       2.398e-03          -0.028           0.000           1.000       3.538e-05          0.5000
  75       6.518e-03      -1.616e-01       2.217e-03          -0.065           0.000           0.998       2.690e-05          0.5450
  76       2.795e-03      -1.616e-01       1.938e-03          -0.120           0.000           0.993       1.688e-05          0.4991
  77       6.538e-04      -1.616e-01       1.673e-03          -0.143           0.000           0.990       5.755e-06          0.7702
Strip 7
  78       5.978e-02      -1.545e-01       9.772e-05           0.080           0.000           0.997       6.660e-06          0.0497
  79       5.849e-02      -1.545e-01       2.021e-04           0.080           0.000           0.997       1.959e-05          0.0937
  80       5.554e-02      -1.545e-01       4.382e-04           0.079           0.000           0.997       3.138e-05          0.1525
  81       5.110e-02      -1.545e-01       7.762e-04           0.070           0.000           0.998       4.133e-05          0.1766
  82       4.544e-02      -1.545e-01       1.171e-03           0.070           0.000           0.998       4.889e-05          0.2563
  83       3.888e-02      -1.545e-01       1.599e-03           0.053           0.000           0.999       5.355e-05          0.2809
  84       3.181e-02      -1.545e-01       1.967e-03           0.049           0.000           0.999       5.514e-05          0.3698
  85       2.463e-02      -1.545e-01       2.281e-03           0.028           0.000           1.000       5.350e-05          0.4432
  86       1.776e-02      -1.545e-01       2.432e-03           0.001           0.000           1.000       4.877e-05          0.4944
  87       1.160e-02      -1.545e-01       2.398e-03          -0.028           0.000           1.000       4.124e-05          0.5506
  88       6.518e-03      -1.545e-01       2.217e-03          -0.065           0.000           0.998       3.135e-05          0.6053
  89       2.795e-03      -1.545e-01       1.938e-03          -0.120          -0.000           0.993       1.967e-05          0.5866
  90       6.538e-04      -1.545e-01       1.673e-03          -0.143           0.000           0.990       6.708e-06          0.9686
Strip 8
  91       5.978e-02      -1.464e-01       9.772e-05           0.080          -0.000           0.997       7.560e-06          0.0544
  92       5.849e-02      -1.464e-01       2.021e-04           0.080           0.000           0.997       2.224e-05          0.1020
  93       5.554e-02      -1.464e-01       4.382e-04           0.079           0.000           0.997       3.563e-05          0.1652
  94       5.110e-02      -1.464e-01       7.762e-04           0.070           0.000           0.998       4.691e-05          0.1940
  95       4.544e-02      -1.464e-01       1.171e-03           0.070           0.000           0.998       5.549e-05          0.2785
  96       3.888e-02      -1.464e-01       1.599e-03           0.053           0.000           0.999       6.079e-05          0.3079
  97       3.181e-02      -1.464e-01       1.967e-03           0.049           0.000           0.999       6.259e-05          0.4013
  98       2.463e-02      -1.464e-01       2.281e-03           0.028           0.000           1.000       6.073e-05          0.4787
  99       1.776e-02      -1.464e-01       2.432e-03           0.001          -0.000           1.000       5.536e-05          0.5337
 100       1.160e-02      -1.464e-01       2.398e-03          -0.028           0.000           1.000       4.682e-05          0.5950
 101       6.518e-03      -1.464e-01       2.217e-03          -0.065           0.000           0.998       3.559e-05          0.6597
 102       2.795e-03      -1.464e-01       1.938e-03          -0.120           0.000           0.993       2.233e-05          0.6677
 103       6.538e-04      -1.464e-01       1.673e-03          -0.143           0.000           0.990       7.615e-06          1.1544
Strip 9
 104       5.978e-02      -1.372e-01       9.772e-05           0.080           0.000           0.997       8.409e-06          0.0585
 105       5.849e-02      -1.372e-01       2.021e-04           0.080           0.000           0.997       2.474e-05          0.1093
 106       5.554e-02      -1.372e-01       4.382e-04           0.079           0.000           0.997       3.963e-05          0.1761
 107       5.110e-02      -1.372e-01       7.762e-04           0.070           0.000           0.998       5.218e-05          0.2087
 108       4.544e-02      -1.372e-01       1.171e-03           0.070           0.000           0.998       6.172e-05          0.2973
 109       3.888e-02      -1.372e-01       1.599e-03           0.053           0.000           0.999       6.761e-05          0.3306
 110       3.181e-02      -1.372e-01       1.967e-03           0.049           0.000           0.999       6.962e-05          0.4276
 111       2.463e-02      -1.372e-01       2.281e-03           0.028           0.000           1.000       6.754e-05          0.5085
 112       1.776e-02      -1.372e-01       2.432e-03           0.001           0.000           1.000       6.157e-05          0.5672
 113       1.160e-02      -1.372e-01       2.398e-03          -0.028          -0.000           1.000       5.207e-05          0.6336
 114       6.518e-03      -1.372e-01       2.217e-03          -0.065           0.000           0.998       3.959e-05          0.7081
 115       2.795e-03      -1.372e-01       1.938e-03          -0.120           0.000           0.993       2.484e-05          0.7409
 116       6.538e-04      -1.372e-01       1.673e-03          -0.143           0.000           0.990       8.469e-06          1.3237
Strip 10
 117       5.978e-02      -1.272e-01       9.772e-05           0.080           0.000           0.997       9.200e-06          0.0620
 118       5.849e-02      -1.272e-01       2.021e-04           0.080           0.000           0.997       2.707e-05          0.1154
 119       5.554e-02      -1.272e-01       4.382e-04           0.079           0.000           0.997       4.335e-05          0.1853
 120       5.110e-02      -1.272e-01       7.762e-04           0.070          -0.000           0.998       5.709e-05          0.2211
 121       4.544e-02      -1.272e-01       1.171e-03           0.070          -0.000           0.998       6.753e-05          0.3129
 122       3.888e-02      -1.272e-01       1.599e-03           0.053           0.000           0.999       7.397e-05          0.3495
 123       3.181e-02      -1.272e-01       1.967e-03           0.049           0.000           0.999       7.617e-05          0.4495
 124       2.463e-02      -1.272e-01       2.281e-03           0.028           0.000           1.000       7.390e-05          0.5334
 125       1.776e-02      -1.272e-01       2.432e-03           0.001          -0.000           1.000       6.737e-05          0.5954
 126       1.160e-02      -1.272e-01       2.398e-03          -0.028           0.000           1.000       5.697e-05          0.6667
 127       6.518e-03      -1.272e-01       2.217e-03          -0.065          -0.000           0.998       4.331e-05          0.7505
 128       2.795e-03      -1.272e-01       1.938e-03          -0.120          -0.000           0.993       2.718e-05          0.8059
 129       6.538e-04      -1.272e-01       1.673e-03          -0.143          -0.000           0.990       9.266e-06          1.4745
Strip 11
 130       5.978e-02      -1.162e-01       9.772e-05           0.080          -0.000           0.997       9.929e-06          0.0649
 131       5.849e-02      -1.162e-01       2.021e-04           0.080          -0.000           0.997       2.921e-05          0.1206
 132       5.554e-02      -1.162e-01       4.382e-04           0.079           0.000           0.997       4.679e-05          0.1929
 133       5.110e-02      -1.162e-01       7.762e-04           0.070           0.000           0.998       6.160e-05          0.2314
 134       4.544e-02      -1.162e-01       1.171e-03           0.070           0.000           0.998       7.288e-05          0.3258
 135       3.888e-02      -1.162e-01       1.599e-03           0.053           0.000           0.999       7.983e-05          0.3650
 136       3.181e-02      -1.162e-01       1.967e-03           0.049           0.000           0.999       8.220e-05          0.4676
 137       2.463e-02      -1.162e-01       2.281e-03           0.028           0.000           1.000       7.975e-05          0.5540
 138       1.776e-02      -1.162e-01       2.432e-03           0.001           0.000           1.000       7.270e-05          0.6191
 139       1.160e-02      -1.162e-01       2.398e-03          -0.028          -0.000           1.000       6.148e-05          0.6949
 140       6.518e-03      -1.162e-01       2.217e-03          -0.065           0.000           0.998       4.674e-05          0.7870
 141       2.795e-03      -1.162e-01       1.938e-03          -0.120           0.000           0.993       2.933e-05          0.8624
 142       6.538e-04      -1.162e-01       1.673e-03          -0.143           0.000           0.990       1.000e-05          1.6064
Strip 12
 143       5.978e-02      -1.045e-01       9.772e-05           0.080          -0.000           0.997       1.059e-05          0.0673
 144       5.849e-02      -1.045e-01       2.021e-04           0.080          -0.000           0.997       3.115e-05          0.1248
 145       5.554e-02      -1.045e-01       4.382e-04           0.079           0.000           0.997       4.990e-05          0.1992
 146       5.110e-02      -1.045e-01       7.762e-04           0.070           0.000           0.998       6.570e-05          0.2398
 147       4.544e-02      -1.045e-01       1.171e-03           0.070           0.000           0.998       7.772e-05          0.3363
 148       3.888e-02      -1.045e-01       1.599e-03           0.053           0.000           0.999       8.514e-05          0.3776
 149       3.181e-02      -1.045e-01       1.967e-03           0.049           0.000           0.999       8.767e-05          0.4823
 150       2.463e-02      -1.045e-01       2.281e-03           0.028           0.000           1.000       8.505e-05          0.5710
 151       1.776e-02      -1.045e-01       2.432e-03           0.001           0.000           1.000       7.753e-05          0.6389
 152       1.160e-02      -1.045e-01       2.398e-03          -0.028           0.000           1.000       6.557e-05          0.7187
 153       6.518e-03      -1.045e-01       2.217e-03          -0.065           0.000           0.998       4.985e-05          0.8180
 154       2.795e-03      -1.045e-01       1.938e-03          -0.120           0.000           0.993       3.128e-05          0.9108
 155       6.538e-04      -1.045e-01       1.673e-03          -0.143          -0.000           0.990       1.066e-05          1.7196
Strip 13
 156       5.978e-02      -9.206e-02       9.772e-05           0.080           0.000           0.997       1.118e-05          0.0692
 157       5.849e-02      -9.206e-02       2.021e-04           0.080           0.000           0.997       3.288e-05          0.1282
 158       5.554e-02      -9.206e-02       4.382e-04           0.079           0.000           0.997       5.267e-05          0.2042
 159       5.110e-02      -9.206e-02       7.762e-04           0.070           0.000           0.998       6.935e-05          0.2465
 160       4.544e-02      -9.206e-02       1.171e-03           0.070           0.000           0.998       8.204e-05          0.3448
 161       3.888e-02      -9.206e-02       1.599e-03           0.053           0.000           0.999       8.987e-05          0.3878
 162       3.181e-02      -9.206e-02       1.967e-03           0.049           0.000           0.999       9.254e-05          0.4943
 163       2.463e-02      -9.206e-02       2.281e-03           0.028           0.000           1.000       8.978e-05          0.5849
 164       1.776e-02      -9.206e-02       2.432e-03           0.001           0.000           1.000       8.184e-05          0.6551
 165       1.160e-02      -9.206e-02       2.398e-03          -0.028           0.000           1.000       6.921e-05          0.7384
 166       6.518e-03      -9.206e-02       2.217e-03          -0.065           0.000           0.998       5.262e-05          0.8440
 167       2.795e-03      -9.206e-02       1.938e-03          -0.120           0.000           0.993       3.302e-05          0.9515
 168       6.538e-04      -9.206e-02       1.673e-03          -0.143           0.000           0.990       1.126e-05          1.8152
Strip 14
 169       5.978e-02      -7.899e-02       9.772e-05           0.080           0.000           0.997       1.169e-05          0.0708
 170       5.849e-02      -7.899e-02       2.021e-04           0.080           0.000           0.997       3.439e-05          0.1309
 171       5.554e-02      -7.899e-02       4.382e-04           0.079           0.000           0.997       5.508e-05          0.2083
 172       5.110e-02      -7.899e-02       7.762e-04           0.070           0.000           0.998       7.253e-05          0.2519
 173       4.544e-02      -7.899e-02       1.171e-03           0.070           0.000           0.998       8.580e-05          0.3515
 174       3.888e-02      -7.899e-02       1.599e-03           0.053           0.000           0.999       9.398e-05          0.3960
 175       3.181e-02      -7.899e-02       1.967e-03           0.049           0.000           0.999       9.678e-05          0.5039
 176       2.463e-02      -7.899e-02       2.281e-03           0.028           0.000           1.000       9.389e-05          0.5961
 177       1.776e-02      -7.899e-02       2.432e-03           0.001           0.000           1.000       8.559e-05          0.6683
 178       1.160e-02      -7.899e-02       2.398e-03          -0.028           0.000           1.000       7.238e-05          0.7544
 179       6.518e-03      -7.899e-02       2.217e-03          -0.065           0.000           0.998       5.503e-05          0.8653
 180       2.795e-03      -7.899e-02       1.938e-03          -0.120           0.000           0.993       3.453e-05          0.9851
 181       6.538e-04      -7.899e-02       1.673e-03          -0.143           0.000           0.990       1.177e-05          1.8943
Strip 15
 182       5.978e-02      -6.538e-02       9.772e-05           0.080           0.000           0.997       1.212e-05          0.0720
 183       5.849e-02      -6.538e-02       2.021e-04           0.080           0.000           0.997       3.566e-05          0.1331
 184       5.554e-02      -6.538e-02       4.382e-04           0.079           0.000           0.997       5.712e-05          0.2114
 185       5.110e-02      -6.538e-02       7.762e-04           0.070           0.000           0.998       7.521e-05          0.2562
 186       4.544e-02      -6.538e-02       1.171e-03           0.070           0.000           0.998       8.897e-05          0.3568
 187       3.888e-02      -6.538e-02       1.599e-03           0.053           0.000           0.999       9.746e-05          0.4024
 188       3.181e-02      -6.538e-02       1.967e-03           0.049           0.000           0.999       1.004e-04          0.5114
 189       2.463e-02      -6.538e-02       2.281e-03           0.028           0.000           1.000       9.736e-05          0.6049
 190       1.776e-02      -6.538e-02       2.432e-03           0.001          -0.000           1.000       8.875e-05          0.6787
 191       1.160e-02      -6.538e-02       2.398e-03          -0.028           0.000           1.000       7.506e-05          0.7673
 192       6.518e-03      -6.538e-02       2.217e-03          -0.065           0.000           0.998       5.706e-05          0.8824
 193       2.795e-03      -6.538e-02       1.938e-03          -0.120          -0.000           0.993       3.580e-05          1.0121
 194       6.538e-04      -6.538e-02       1.673e-03          -0.143          -0.000           0.990       1.221e-05          1.9580
Strip 16
 195       5.978e-02      -5.132e-02       9.772e-05           0.080          -0.000           0.997       1.247e-05          0.0729
 196       5.849e-02      -5.132e-02       2.021e-04           0.080          -0.000           0.997       3.669e-05          0.1347
 197       5.554e-02      -5.132e-02       4.382e-04           0.079           0.000           0.997       5.876e-05          0.2138
 198       5.110e-02      -5.132e-02       7.762e-04           0.070          -0.000           0.998       7.737e-05          0.2594
 199       4.544e-02      -5.132e-02       1.171e-03           0.070          -0.000           0.998       9.153e-05          0.3609
 200       3.888e-02      -5.132e-02       1.599e-03           0.053           0.000           0.999       1.003e-04          0.4073
 201       3.181e-02      -5.132e-02       1.967e-03           0.049           0.000           0.999       1.032e-04          0.5172
 202       2.463e-02      -5.132e-02       2.281e-03           0.028           0.000           1.000       1.002e-04          0.6117
 203       1.776e-02      -5.132e-02       2.432e-03           0.001           0.000           1.000       9.131e-05          0.6867
 204       1.160e-02      -5.132e-02       2.398e-03          -0.028          -0.000           1.000       7.722e-05          0.7771
 205       6.518e-03      -5.132e-02       2.217e-03          -0.065           0.000           0.998       5.870e-05          0.8956
 206       2.795e-03      -5.132e-02       1.938e-03          -0.120          -0.000           0.993       3.683e-05          1.0331
 207       6.538e-04      -5.132e-02       1.673e-03          -0.143          -0.000           0.990       1.256e-05          2.0074
Strip 17
 208       5.978e-02      -3.691e-02       9.772e-05           0.080           0.000           0.997       1.273e-05          0.0736
 209       5.849e-02      -3.691e-02       2.021e-04           0.080           0.000           0.997       3.746e-05          0.1359
 210       5.554e-02      -3.691e-02       4.382e-04           0.079           0.000           0.997       6.001e-05          0.2156
 211       5.110e-02      -3.691e-02       7.762e-04           0.070           0.000           0.998       7.901e-05          0.2617
 212       4.544e-02      -3.691e-02       1.171e-03           0.070           0.000           0.998       9.347e-05          0.3638
 213       3.888e-02      -3.691e-02       1.599e-03           0.053           0.000           0.999       1.024e-04          0.4108
 214       3.181e-02      -3.691e-02       1.967e-03           0.049           0.000           0.999       1.054e-04          0.5213
 215       2.463e-02      -3.691e-02       2.281e-03           0.028           0.000           1.000       1.023e-04          0.6165
 216       1.776e-02      -3.691e-02       2.432e-03           0.001           0.000           1.000       9.324e-05          0.6925
 217       1.160e-02      -3.691e-02       2.398e-03          -0.028          -0.000           1.000       7.885e-05          0.7843
 218       6.518e-03      -3.691e-02       2.217e-03          -0.065           0.000           0.998       5.995e-05          0.9052
 219       2.795e-03      -3.691e-02       1.938e-03          -0.120           0.000           0.993       3.761e-05          1.0484
 220       6.538e-04      -3.691e-02       1.673e-03          -0.143           0.000           0.990       1.283e-05          2.0437
Strip 18
 221       5.978e-02      -2.225e-02       9.772e-05           0.080          -0.000           0.997       1.291e-05          0.0740
 222       5.849e-02      -2.225e-02       2.021e-04           0.080           0.000           0.997       3.798e-05          0.1366
 223       5.554e-02      -2.225e-02       4.382e-04           0.079           0.000           0.997       6.084e-05          0.2167
 224       5.110e-02      -2.225e-02       7.762e-04           0.070           0.000           0.998       8.011e-05          0.2632
 225       4.544e-02      -2.225e-02       1.171e-03           0.070           0.000           0.998       9.477e-05          0.3656
 226       3.888e-02      -2.225e-02       1.599e-03           0.053           0.000           0.999       1.038e-04          0.4130
 227       3.181e-02      -2.225e-02       1.967e-03           0.049           0.000           0.999       1.069e-04          0.5240
 228       2.463e-02      -2.225e-02       2.281e-03           0.028           0.000           1.000       1.037e-04          0.6197
 229       1.776e-02      -2.225e-02       2.432e-03           0.001          -0.000           1.000       9.454e-05          0.6963
 230       1.160e-02      -2.225e-02       2.398e-03          -0.028           0.000           1.000       7.995e-05          0.7890
 231       6.518e-03      -2.225e-02       2.217e-03          -0.065           0.000           0.998       6.078e-05          0.9115
 232       2.795e-03      -2.225e-02       1.938e-03          -0.120           0.000           0.993       3.814e-05          1.0585
 233       6.538e-04      -2.225e-02       1.673e-03          -0.143          -0.000           0.990       1.300e-05          2.0674
Strip 19
 234       5.978e-02      -7.432e-03       9.772e-05           0.080           0.000           0.997       1.300e-05          0.0742
 235       5.849e-02      -7.432e-03       2.021e-04           0.080           0.000           0.997       3.824e-05          0.1370
 236       5.554e-02      -7.432e-03       4.382e-04           0.079           0.000           0.997       6.126e-05          0.2172
 237       5.110e-02      -7.432e-03       7.762e-04           0.070           0.000           0.998       8.066e-05          0.2639
 238       4.544e-02      -7.432e-03       1.171e-03           0.070           0.000           0.998       9.542e-05          0.3666
 239       3.888e-02      -7.432e-03       1.599e-03           0.053           0.000           0.999       1.045e-04          0.4142
 240       3.181e-02      -7.432e-03       1.967e-03           0.049           0.000           0.999       1.076e-04          0.5253
 241       2.463e-02      -7.432e-03       2.281e-03           0.028           0.000           1.000       1.044e-04          0.6213
 242       1.776e-02      -7.432e-03       2.432e-03           0.001           0.000           1.000       9.519e-05          0.6982
 243       1.160e-02      -7.432e-03       2.398e-03          -0.028           0.000           1.000       8.050e-05          0.7913
 244       6.518e-03      -7.432e-03       2.217e-03          -0.065           0.000           0.998       6.120e-05          0.9147
 245       2.795e-03      -7.432e-03       1.938e-03          -0.120           0.000           0.993       3.840e-05          1.0634
 246       6.538e-04      -7.432e-03       1.673e-03          -0.143           0.000           0.990       1.309e-05          2.0791
Strip 20
 247       5.978e-02       7.432e-03       9.772e-05           0.080           0.000           0.997       1.300e-05          0.0742
 248       5.849e-02       7.432e-03       2.021e-04           0.080           0.000           0.997       3.824e-05          0.1370
 249       5.554e-02       7.432e-03       4.382e-04           0.079           0.000           0.997       6.126e-05          0.2172
 250       5.110e-02       7.432e-03       7.762e-04           0.070           0.000           0.998       8.066e-05          0.2639
 251       4.544e-02       7.432e-03       1.171e-03           0.070           0.000           0.998       9.542e-05          0.3666
 252       3.888e-02       7.432e-03       1.599e-03           0.053           0.000           0.999       1.045e-04          0.4142
 253       3.181e-02       7.432e-03       1.967e-03           0.049           0.000           0.999       1.076e-04          0.5253
 254       2.463e-02       7.432e-03       2.281e-03           0.028           0.000           1.000       1.044e-04          0.6213
 255       1.776e-02       7.432e-03       2.432e-03           0.001           0.000           1.000       9.519e-05          0.6982
 256       1.160e-02       7.432e-03       2.398e-03          -0.028           0.000           1.000       8.050e-05          0.7913
 257       6.518e-03       7.432e-03       2.217e-03          -0.065           0.000           0.998       6.120e-05          0.9147
 258       2.795e-03       7.432e-03       1.938e-03          -0.120           0.000           0.993       3.840e-05          1.0634
 259       6.538e-04       7.432e-03       1.673e-03          -0.143           0.000           0.990       1.309e-05          2.0791
Strip 21
 260       5.978e-02       2.225e-02       9.772e-05           0.080           0.000           0.997       1.291e-05          0.0740
 261       5.849e-02       2.225e-02       2.021e-04           0.080           0.000           0.997       3.798e-05          0.1366
 262       5.554e-02       2.225e-02       4.382e-04           0.079           0.000           0.997       6.084e-05          0.2167
 263       5.110e-02       2.225e-02       7.762e-04           0.070           0.000           0.998       8.011e-05          0.2632
 264       4.544e-02       2.225e-02       1.171e-03           0.070          -0.000           0.998       9.477e-05          0.3656
 265       3.888e-02       2.225e-02       1.599e-03           0.053          -0.000           0.999       1.038e-04          0.4130
 266       3.181e-02       2.225e-02       1.967e-03           0.049           0.000           0.999       1.069e-04          0.5240
 267       2.463e-02       2.225e-02       2.281e-03           0.028           0.000           1.000       1.037e-04          0.6197
 268       1.776e-02       2.225e-02       2.432e-03           0.001           0.000           1.000       9.454e-05          0.6963
 269       1.160e-02       2.225e-02       2.398e-03          -0.028           0.000           1.000       7.995e-05          0.7890
 270       6.518e-03       2.225e-02       2.217e-03          -0.065           0.000           0.998       6.078e-05          0.9115
 271       2.795e-03       2.225e-02       1.938e-03          -0.120           0.000           0.993       3.814e-05          1.0585
 272       6.538e-04       2.225e-02       1.673e-03          -0.143           0.000           0.990       1.300e-05          2.0674
Strip 22
 273       5.978e-02       3.691e-02       9.772e-05           0.080          -0.000           0.997       1.273e-05          0.0736
 274       5.849e-02       3.691e-02       2.021e-04           0.080          -0.000           0.997       3.746e-05          0.1359
 275       5.554e-02       3.691e-02       4.382e-04           0.079          -0.000           0.997       6.001e-05          0.2156
 276       5.110e-02       3.691e-02       7.762e-04           0.070           0.000           0.998       7.901e-05          0.2617
 277       4.544e-02       3.691e-02       1.171e-03           0.070           0.000           0.998       9.347e-05          0.3638
 278       3.888e-02       3.691e-02       1.599e-03           0.053          -0.000           0.999       1.024e-04          0.4108
 279       3.181e-02       3.691e-02       1.967e-03           0.049          -0.000           0.999       1.054e-04          0.5213
 280       2.463e-02       3.691e-02       2.281e-03           0.028          -0.000           1.000       1.023e-04          0.6165
 281       1.776e-02       3.691e-02       2.432e-03           0.001          -0.000           1.000       9.324e-05          0.6925
 282       1.160e-02       3.691e-02       2.398e-03          -0.028           0.000           1.000       7.885e-05          0.7843
 283       6.518e-03       3.691e-02       2.217e-03          -0.065           0.000           0.998       5.995e-05          0.9052
 284       2.795e-03       3.691e-02       1.938e-03          -0.120           0.000           0.993       3.761e-05          1.0484
 285       6.538e-04       3.691e-02       1.673e-03          -0.143           0.000           0.990       1.283e-05          2.0437
Strip 23
 286       5.978e-02       5.132e-02       9.772e-05           0.080           0.000           0.997       1.247e-05          0.0729
 287       5.849e-02       5.132e-02       2.021e-04           0.080           0.000           0.997       3.669e-05          0.1347
 288       5.554e-02       5.132e-02       4.382e-04           0.079           0.000           0.997       5.876e-05          0.2138
 289       5.110e-02       5.132e-02       7.762e-04           0.070           0.000           0.998       7.737e-05          0.2594
 290       4.544e-02       5.132e-02       1.171e-03           0.070           0.000           0.998       9.153e-05          0.3609
 291       3.888e-02       5.132e-02       1.599e-03           0.053           0.000           0.999       1.003e-04          0.4073
 292       3.181e-02       5.132e-02       1.967e-03           0.049           0.000           0.999       1.032e-04          0.5172
 293       2.463e-02       5.132e-02       2.281e-03           0.028           0.000           1.000       1.002e-04          0.6117
 294       1.776e-02       5.132e-02       2.432e-03           0.001           0.000           1.000       9.131e-05          0.6867
 295       1.160e-02       5.132e-02       2.398e-03          -0.028          -0.000           1.000       7.722e-05          0.7771
 296       6.518e-03       5.132e-02       2.217e-03          -0.065          -0.000           0.998       5.870e-05          0.8956
 297       2.795e-03       5.132e-02       1.938e-03          -0.120          -0.000           0.993       3.683e-05          1.0331
 298       6.538e-04       5.132e-02       1.673e-03          -0.143           0.000           0.990       1.256e-05          2.0074
Strip 24
 299       5.978e-02       6.538e-02       9.772e-05           0.080           0.000           0.997       1.212e-05          0.0720
 300       5.849e-02       6.538e-02       2.021e-04           0.080           0.000           0.997       3.566e-05          0.1331
 301       5.554e-02       6.538e-02       4.382e-04           0.079           0.000           0.997       5.712e-05          0.2114
 302       5.110e-02       6.538e-02       7.762e-04           0.070           0.000           0.998       7.521e-05          0.2562
 303       4.544e-02       6.538e-02       1.171e-03           0.070           0.000           0.998       8.897e-05          0.3568
 304       3.888e-02       6.538e-02       1.599e-03           0.053           0.000           0.999       9.746e-05          0.4024
 305       3.181e-02       6.538e-02       1.967e-03           0.049           0.000           0.999       1.004e-04          0.5114
 306       2.463e-02       6.538e-02       2.281e-03           0.028           0.000           1.000       9.736e-05          0.6049
 307       1.776e-02       6.538e-02       2.432e-03           0.001          -0.000           1.000       8.875e-05          0.6787
 308       1.160e-02       6.538e-02       2.398e-03          -0.028           0.000           1.000       7.506e-05          0.7673
 309       6.518e-03       6.538e-02       2.217e-03          -0.065           0.000           0.998       5.706e-05          0.8824
 310       2.795e-03       6.538e-02       1.938e-03          -0.120           0.000           0.993       3.580e-05          1.0121
 311       6.538e-04       6.538e-02       1.673e-03          -0.143          -0.000           0.990       1.221e-05          1.9580
Strip 25
 312       5.978e-02       7.899e-02       9.772e-05           0.080           0.000           0.997       1.169e-05          0.0708
 313       5.849e-02       7.899e-02       2.021e-04           0.080           0.000           0.997       3.439e-05          0.1309
 314       5.554e-02       7.899e-02       4.382e-04           0.079           0.000           0.997       5.508e-05          0.2083
 315       5.110e-02       7.899e-02       7.762e-04           0.070           0.000           0.998       7.253e-05          0.2519
 316       4.544e-02       7.899e-02       1.171e-03           0.070           0.000           0.998       8.580e-05          0.3515
 317       3.888e-02       7.899e-02       1.599e-03           0.053           0.000           0.999       9.398e-05          0.3960
 318       3.181e-02       7.899e-02       1.967e-03           0.049           0.000           0.999       9.678e-05          0.5039
 319       2.463e-02       7.899e-02       2.281e-03           0.028           0.000           1.000       9.389e-05          0.5961
 320       1.776e-02       7.899e-02       2.432e-03           0.001           0.000           1.000       8.559e-05          0.6683
 321       1.160e-02       7.899e-02       2.398e-03          -0.028           0.000           1.000       7.238e-05          0.7544
 322       6.518e-03       7.899e-02       2.217e-03          -0.065           0.000           0.998       5.503e-05          0.8653
 323       2.795e-03       7.899e-02       1.938e-03          -0.120           0.000           0.993       3.453e-05          0.9851
 324       6.538e-04       7.899e-02       1.673e-03          -0.143           0.000           0.990       1.177e-05          1.8943
Strip 26
 325       5.978e-02       9.206e-02       9.772e-05           0.080           0.000           0.997       1.118e-05          0.0692
 326       5.849e-02       9.206e-02       2.021e-04           0.080           0.000           0.997       3.288e-05          0.1282
 327       5.554e-02       9.206e-02       4.382e-04           0.079           0.000           0.997       5.267e-05          0.2042
 328       5.110e-02       9.206e-02       7.762e-04           0.070           0.000           0.998       6.935e-05          0.2465
 329       4.544e-02       9.206e-02       1.171e-03           0.070           0.000           0.998       8.204e-05          0.3448
 330       3.888e-02       9.206e-02       1.599e-03           0.053           0.000           0.999       8.987e-05          0.3878
 331       3.181e-02       9.206e-02       1.967e-03           0.049           0.000           0.999       9.254e-05          0.4943
 332       2.463e-02       9.206e-02       2.281e-03           0.028           0.000           1.000       8.978e-05          0.5849
 333       1.776e-02       9.206e-02       2.432e-03           0.001           0.000           1.000       8.184e-05          0.6551
 334       1.160e-02       9.206e-02       2.398e-03          -0.028           0.000           1.000       6.921e-05          0.7384
 335       6.518e-03       9.206e-02       2.217e-03          -0.065           0.000           0.998       5.262e-05          0.8440
 336       2.795e-03       9.206e-02       1.938e-03          -0.120           0.000           0.993       3.302e-05          0.9515
 337       6.538e-04       9.206e-02       1.673e-03          -0.143           0.000           0.990       1.126e-05          1.8152
Strip 27
 338       5.978e-02       1.045e-01       9.772e-05           0.080           0.000           0.997       1.059e-05          0.0673
 339       5.849e-02       1.045e-01       2.021e-04           0.080          -0.000           0.997       3.115e-05          0.1248
 340       5.554e-02       1.045e-01       4.382e-04           0.079           0.000           0.997       4.990e-05          0.1992
 341       5.110e-02       1.045e-01       7.762e-04           0.070           0.000           0.998       6.570e-05          0.2398
 342       4.544e-02       1.045e-01       1.171e-03           0.070           0.000           0.998       7.772e-05          0.3363
 343       3.888e-02       1.045e-01       1.599e-03           0.053           0.000           0.999       8.514e-05          0.3776
 344       3.181e-02       1.045e-01       1.967e-03           0.049           0.000           0.999       8.767e-05          0.4823
 345       2.463e-02       1.045e-01       2.281e-03           0.028           0.000           1.000       8.505e-05          0.5710
 346       1.776e-02       1.045e-01       2.432e-03           0.001           0.000           1.000       7.753e-05          0.6389
 347       1.160e-02       1.045e-01       2.398e-03          -0.028           0.000           1.000       6.557e-05          0.7187
 348       6.518e-03       1.045e-01       2.217e-03          -0.065           0.000           0.998       4.985e-05          0.8180
 349       2.795e-03       1.045e-01       1.938e-03          -0.120           0.000           0.993       3.128e-05          0.9108
 350       6.538e-04       1.045e-01       1.673e-03          -0.143           0.000           0.990       1.066e-05          1.7196
Strip 28
 351       5.978e-02       1.162e-01       9.772e-05           0.080          -0.000           0.997       9.929e-06          0.0649
 352       5.849e-02       1.162e-01       2.021e-04           0.080           0.000           0.997       2.921e-05          0.1206
 353       5.554e-02       1.162e-01       4.382e-04           0.079           0.000           0.997       4.679e-05          0.1929
 354       5.110e-02       1.162e-01       7.762e-04           0.070           0.000           0.998       6.160e-05          0.2314
 355       4.544e-02       1.162e-01       1.171e-03           0.070           0.000           0.998       7.288e-05          0.3258
 356       3.888e-02       1.162e-01       1.599e-03           0.053           0.000           0.999       7.983e-05          0.3650
 357       3.181e-02       1.162e-01       1.967e-03           0.049           0.000           0.999       8.220e-05          0.4676
 358       2.463e-02       1.162e-01       2.281e-03           0.028           0.000           1.000       7.975e-05          0.5540
 359       1.776e-02       1.162e-01       2.432e-03           0.001          -0.000           1.000       7.270e-05          0.6191
 360       1.160e-02       1.162e-01       2.398e-03          -0.028           0.000           1.000       6.148e-05          0.6949
 361       6.518e-03       1.162e-01       2.217e-03          -0.065           0.000           0.998       4.674e-05          0.7870
 362       2.795e-03       1.162e-01       1.938e-03          -0.120           0.000           0.993       2.933e-05          0.8624
 363       6.538e-04       1.162e-01       1.673e-03          -0.143           0.000           0.990       1.000e-05          1.6064
Strip 29
 364       5.978e-02       1.272e-01       9.772e-05           0.080          -0.000           0.997       9.200e-06          0.0620
 365       5.849e-02       1.272e-01       2.021e-04           0.080           0.000           0.997       2.707e-05          0.1154
 366       5.554e-02       1.272e-01       4.382e-04           0.079           0.000           0.997       4.335e-05          0.1853
 367       5.110e-02       1.272e-01       7.762e-04           0.070          -0.000           0.998       5.709e-05          0.2211
 368       4.544e-02       1.272e-01       1.171e-03           0.070          -0.000           0.998       6.753e-05          0.3129
 369       3.888e-02       1.272e-01       1.599e-03           0.053           0.000           0.999       7.397e-05          0.3495
 370       3.181e-02       1.272e-01       1.967e-03           0.049           0.000           0.999       7.617e-05          0.4495
 371       2.463e-02       1.272e-01       2.281e-03           0.028           0.000           1.000       7.390e-05          0.5334
 372       1.776e-02       1.272e-01       2.432e-03           0.001           0.000           1.000       6.737e-05          0.5954
 373       1.160e-02       1.272e-01       2.398e-03          -0.028          -0.000           1.000       5.697e-05          0.6667
 374       6.518e-03       1.272e-01       2.217e-03          -0.065           0.000           0.998       4.331e-05          0.7505
 375       2.795e-03       1.272e-01       1.938e-03          -0.120           0.000           0.993       2.718e-05          0.8059
 376       6.538e-04       1.272e-01       1.673e-03          -0.143          -0.000           0.990       9.266e-06          1.4745
Strip 30
 377       5.978e-02       1.372e-01       9.772e-05           0.080           0.000           0.997       8.409e-06          0.0585
 378       5.849e-02       1.372e-01       2.021e-04           0.080           0.000           0.997       2.474e-05          0.1093
 379       5.554e-02       1.372e-01       4.382e-04           0.079           0.000           0.997       3.963e-05          0.1761
 380       5.110e-02       1.372e-01       7.762e-04           0.070          -0.000           0.998       5.218e-05          0.2087
 381       4.544e-02       1.372e-01       1.171e-03           0.070          -0.000           0.998       6.172e-05          0.2973
 382       3.888e-02       1.372e-01       1.599e-03           0.053           0.000           0.999       6.761e-05          0.3306
 383       3.181e-02       1.372e-01       1.967e-03           0.049           0.000           0.999       6.962e-05          0.4276
 384       2.463e-02       1.372e-01       2.281e-03           0.028           0.000           1.000       6.754e-05          0.5085
 385       1.776e-02       1.372e-01       2.432e-03           0.001           0.000           1.000       6.157e-05          0.5672
 386       1.160e-02       1.372e-01       2.398e-03          -0.028           0.000           1.000       5.207e-05          0.6336
 387       6.518e-03       1.372e-01       2.217e-03          -0.065           0.000           0.998       3.959e-05          0.7081
 388       2.795e-03       1.372e-01       1.938e-03          -0.120           0.000           0.993       2.484e-05          0.7409
 389       6.538e-04       1.372e-01       1.673e-03          -0.143           0.000           0.990       8.469e-06          1.3237
Strip 31
 390       5.978e-02       1.464e-01       9.772e-05           0.080           0.000           0.997       7.560e-06          0.0544
 391       5.849e-02       1.464e-01       2.021e-04           0.080           0.000           0.997       2.224e-05          0.1020
 392       5.554e-02       1.464e-01       4.382e-04           0.079           0.000           0.997       3.563e-05          0.1652
 393       5.110e-02       1.464e-01       7.762e-04           0.070           0.000           0.998       4.691e-05          0.1940
 394       4.544e-02       1.464e-01       1.171e-03           0.070           0.000           0.998       5.549e-05          0.2785
 395       3.888e-02       1.464e-01       1.599e-03           0.053           0.000           0.999       6.079e-05          0.3079
 396       3.181e-02       1.464e-01       1.967e-03           0.049           0.000           0.999       6.259e-05          0.4013
 397       2.463e-02       1.464e-01       2.281e-03           0.028           0.000           1.000       6.073e-05          0.4787
 398       1.776e-02       1.464e-01       2.432e-03           0.001          -0.000           1.000       5.536e-05          0.5337
 399       1.160e-02       1.464e-01       2.398e-03          -0.028           0.000           1.000       4.682e-05          0.5950
 400       6.518e-03       1.464e-01       2.217e-03          -0.065           0.000           0.998       3.559e-05          0.6597
 401       2.795e-03       1.464e-01       1.938e-03          -0.120           0.000           0.993       2.233e-05          0.6677
 402       6.538e-04       1.464e-01       1.673e-03          -0.143           0.000           0.990       7.615e-06          1.1544
Strip 32
 403       5.978e-02       1.545e-01       9.772e-05           0.080          -0.000           0.997       6.660e-06          0.0497
 404       5.849e-02       1.545e-01       2.021e-04           0.080           0.000           0.997       1.959e-05          0.0937
 405       5.554e-02       1.545e-01       4.382e-04           0.079           0.000           0.997       3.138e-05          0.1525
 406       5.110e-02       1.545e-01       7.762e-04           0.070           0.000           0.998       4.133e-05          0.1766
 407       4.544e-02       1.545e-01       1.171e-03           0.070           0.000           0.998       4.889e-05          0.2563
 408       3.888e-02       1.545e-01       1.599e-03           0.053           0.000           0.999       5.355e-05          0.2809
 409       3.181e-02       1.545e-01       1.967e-03           0.049           0.000           0.999       5.514e-05          0.3698
 410       2.463e-02       1.545e-01       2.281e-03           0.028           0.000           1.000       5.350e-05          0.4432
 411       1.776e-02       1.545e-01       2.432e-03           0.001           0.000           1.000       4.877e-05          0.4944
 412       1.160e-02       1.545e-01       2.398e-03          -0.028          -0.000           1.000       4.124e-05          0.5506
 413       6.518e-03       1.545e-01       2.217e-03          -0.065           0.000           0.998       3.135e-05          0.6053
 414       2.795e-03       1.545e-01       1.938e-03          -0.120           0.000           0.993       1.967e-05          0.5866
 415       6.538e-04       1.545e-01       1.673e-03          -0.143           0.000           0.990       6.708e-06          0.9686
Strip 33
 416       5.978e-02       1.616e-01       9.772e-05           0.080           0.000           0.997       5.714e-06          0.0444
 417       5.849e-02       1.616e-01       2.021e-04           0.080           0.000           0.997       1.681e-05          0.0842
 418       5.554e-02       1.616e-01       4.382e-04           0.079           0.000           0.997       2.693e-05          0.1381
 419       5.110e-02       1.616e-01       7.762e-04           0.070          -0.000           0.998       3.546e-05          0.1567
 420       4.544e-02       1.616e-01       1.171e-03           0.070          -0.000           0.998       4.194e-05          0.2306
 421       3.888e-02       1.616e-01       1.599e-03           0.053           0.000           0.999       4.595e-05          0.2493
 422       3.181e-02       1.616e-01       1.967e-03           0.049           0.000           0.999       4.731e-05          0.3327
 423       2.463e-02       1.616e-01       2.281e-03           0.028          -0.000           1.000       4.590e-05          0.4012
 424       1.776e-02       1.616e-01       2.432e-03           0.001          -0.000           1.000       4.184e-05          0.4484
 425       1.160e-02       1.616e-01       2.398e-03          -0.028           0.000           1.000       3.538e-05          0.5000
 426       6.518e-03       1.616e-01       2.217e-03          -0.065           0.000           0.998       2.690e-05          0.5450
 427       2.795e-03       1.616e-01       1.938e-03          -0.120           0.000           0.993       1.688e-05          0.4991
 428       6.538e-04       1.616e-01       1.673e-03          -0.143           0.000           0.990       5.755e-06          0.7702
Strip 34
 429       5.978e-02       1.675e-01       9.772e-05           0.080          -0.000           0.997       4.730e-06          0.0387
 430       5.849e-02       1.675e-01       2.021e-04           0.080          -0.000           0.997       1.391e-05          0.0738
 431       5.554e-02       1.675e-01       4.382e-04           0.079           0.000           0.997       2.229e-05          0.1219
 432       5.110e-02       1.675e-01       7.762e-04           0.070           0.000           0.998       2.935e-05          0.1342
 433       4.544e-02       1.675e-01       1.171e-03           0.070           0.000           0.998       3.472e-05          0.2014
 434       3.888e-02       1.675e-01       1.599e-03           0.053           0.000           0.999       3.803e-05          0.2132
 435       3.181e-02       1.675e-01       1.967e-03           0.049           0.000           0.999       3.916e-05          0.2896
 436       2.463e-02       1.675e-01       2.281e-03           0.028           0.000           1.000       3.799e-05          0.3520
 437       1.776e-02       1.675e-01       2.432e-03           0.001           0.000           1.000       3.463e-05          0.3946
 438       1.160e-02       1.675e-01       2.398e-03          -0.028           0.000           1.000       2.929e-05          0.4423
 439       6.518e-03       1.675e-01       2.217e-03          -0.065           0.000           0.998       2.226e-05          0.4795
 440       2.795e-03       1.675e-01       1.938e-03          -0.120           0.000           0.993       1.397e-05          0.4075
 441       6.538e-04       1.675e-01       1.673e-03          -0.143           0.000           0.990       4.763e-06          0.5661
Strip 35
 442       5.978e-02       1.724e-01       9.772e-05           0.080          -0.000           0.997       3.713e-06          0.0324
 443       5.849e-02       1.724e-01       2.021e-04           0.080          -0.000           0.997       1.092e-05          0.0623
 444       5.554e-02       1.724e-01       4.382e-04           0.079           0.000           0.997       1.749e-05          0.1040
 445       5.110e-02       1.724e-01       7.762e-04           0.070           0.000           0.998       2.304e-05          0.1094
 446       4.544e-02       1.724e-01       1.171e-03           0.070           0.000           0.998       2.725e-05          0.1689
 447       3.888e-02       1.724e-01       1.599e-03           0.053           0.000           0.999       2.985e-05          0.1734
 448       3.181e-02       1.724e-01       1.967e-03           0.049           0.000           0.999       3.074e-05          0.2410
 449       2.463e-02       1.724e-01       2.281e-03           0.028           0.000           1.000       2.982e-05          0.2952
 450       1.776e-02       1.724e-01       2.432e-03           0.001           0.000           1.000       2.718e-05          0.3320
 451       1.160e-02       1.724e-01       2.398e-03          -0.028           0.000           1.000       2.299e-05          0.3763
 452       6.518e-03       1.724e-01       2.217e-03          -0.065           0.000           0.998       1.748e-05          0.4090
 453       2.795e-03       1.724e-01       1.938e-03          -0.120           0.000           0.993       1.097e-05          0.3154
 454       6.538e-04       1.724e-01       1.673e-03          -0.143           0.000           0.990       3.739e-06          0.3668
Strip 36
 455       5.978e-02       1.760e-01       9.772e-05           0.080           0.000           0.997       2.670e-06          0.0258
 456       5.849e-02       1.760e-01       2.021e-04           0.080           0.000           0.997       7.855e-06          0.0496
 457       5.554e-02       1.760e-01       4.382e-04           0.079           0.000           0.997       1.258e-05          0.0839
 458       5.110e-02       1.760e-01       7.762e-04           0.070           0.000           0.998       1.657e-05          0.0828
 459       4.544e-02       1.760e-01       1.171e-03           0.070           0.000           0.998       1.960e-05          0.1334
 460       3.888e-02       1.760e-01       1.599e-03           0.053           0.000           0.999       2.147e-05          0.1315
 461       3.181e-02       1.760e-01       1.967e-03           0.049           0.000           0.999       2.211e-05          0.1877
 462       2.463e-02       1.760e-01       2.281e-03           0.028           0.000           1.000       2.145e-05          0.2315
 463       1.776e-02       1.760e-01       2.432e-03           0.001           0.000           1.000       1.955e-05          0.2607
 464       1.160e-02       1.760e-01       2.398e-03          -0.028          -0.000           1.000       1.653e-05          0.3001
 465       6.518e-03       1.760e-01       2.217e-03          -0.065          -0.000           0.998       1.257e-05          0.3326
 466       2.795e-03       1.760e-01       1.938e-03          -0.120           0.000           0.993       7.887e-06          0.2284
 467       6.538e-04       1.760e-01       1.673e-03          -0.143           0.000           0.990       2.689e-06          0.1890
Strip 37
 468       5.978e-02       1.785e-01       9.772e-05           0.080           0.000           0.997       1.609e-06          0.0189
 469       5.849e-02       1.785e-01       2.021e-04           0.080           0.000           0.997       4.735e-06          0.0355
 470       5.554e-02       1.785e-01       4.382e-04           0.079           0.000           0.997       7.584e-06          0.0610
 471       5.110e-02       1.785e-01       7.762e-04           0.070           0.000           0.998       9.986e-06          0.0562
 472       4.544e-02       1.785e-01       1.171e-03           0.070           0.000           0.998       1.181e-05          0.0946
 473       3.888e-02       1.785e-01       1.599e-03           0.053           0.000           0.999       1.294e-05          0.0898
 474       3.181e-02       1.785e-01       1.967e-03           0.049           0.000           0.999       1.332e-05          0.1312
 475       2.463e-02       1.785e-01       2.281e-03           0.028           0.000           1.000       1.293e-05          0.1626
 476       1.776e-02       1.785e-01       2.432e-03           0.001           0.000           1.000       1.178e-05          0.1830
 477       1.160e-02       1.785e-01       2.398e-03          -0.028           0.000           1.000       9.966e-06          0.2134
 478       6.518e-03       1.785e-01       2.217e-03          -0.065           0.000           0.998       7.576e-06          0.2452
 479       2.795e-03       1.785e-01       1.938e-03          -0.120           0.000           0.993       4.754e-06          0.1533
 480       6.538e-04       1.785e-01       1.673e-03          -0.143           0.000           0.990       1.621e-06          0.0567
Strip 38
 481       5.978e-02       1.797e-01       9.772e-05           0.080           0.000           0.997       5.377e-07          0.0120
 482       5.849e-02       1.797e-01       2.021e-04           0.080           0.000           0.997       1.582e-06          0.0209
 483       5.554e-02       1.797e-01       4.382e-04           0.079           0.000           0.997       2.534e-06          0.0362
 484       5.110e-02       1.797e-01       7.762e-04           0.070           0.000           0.998       3.336e-06          0.0323
 485       4.544e-02       1.797e-01       1.171e-03           0.070           0.000           0.998       3.947e-06          0.0553
 486       3.888e-02       1.797e-01       1.599e-03           0.053           0.000           0.999       4.323e-06          0.0518
 487       3.181e-02       1.797e-01       1.967e-03           0.049           0.000           0.999       4.452e-06          0.0763
 488       2.463e-02       1.797e-01       2.281e-03           0.028           0.000           1.000       4.319e-06          0.0948
 489       1.776e-02       1.797e-01       2.432e-03           0.001           0.000           1.000       3.937e-06          0.1068
 490       1.160e-02       1.797e-01       2.398e-03          -0.028           0.000           1.000       3.329e-06          0.1251
 491       6.518e-03       1.797e-01       2.217e-03          -0.065           0.000           0.998       2.531e-06          0.1469
 492       2.795e-03       1.797e-01       1.938e-03          -0.120           0.000           0.993       1.588e-06          0.0910
 493       6.538e-04       1.797e-01       1.673e-03          -0.143           0.000           0.990       5.415e-07          0.0022










